                                  MODFLOW-2005     
      U.S. GEOLOGICAL SURVEY MODULAR FINITE-DIFFERENCE GROUND-WATER FLOW MODEL
              VERSION 1.9.62 2019/09/16 CFPv2 HTM/STM/UMT-LNK/CADS

           THIS IS A RESEARCH VERSION OF CFP MODE 1 FOR TEST PURPOSES
                  WITHOUT ANY WARRANTY REGARDING CORRECTNESS

           CONTACT: THOMAS.REIMANN@TU-DRESDEN.DE / BSHOEMAK@USGS.GOV


 LIST FILE: BS_CFP_singleCond_v1.list
                         UNIT    2

 OPENING BS_CFP_singleCond_v1.dis
 FILE TYPE:DIS   UNIT   11   STATUS:OLD    
 FORMAT:FORMATTED              ACCESS:SEQUENTIAL          

 OPENING BS_CFP_singleCond_v1.bas
 FILE TYPE:BAS6   UNIT   13   STATUS:OLD    
 FORMAT:FORMATTED              ACCESS:SEQUENTIAL          

 OPENING BS_CFP_singleCond_v1.lpf
 FILE TYPE:LPF   UNIT   15   STATUS:OLD    
 FORMAT:FORMATTED              ACCESS:SEQUENTIAL          

 OPENING BS_CFP_singleCond_v1.oc
 FILE TYPE:OC   UNIT   14   STATUS:OLD    
 FORMAT:FORMATTED              ACCESS:SEQUENTIAL          

 OPENING BS_CFP_singleCond_v1.pcg
 FILE TYPE:PCG   UNIT   27   STATUS:OLD    
 FORMAT:FORMATTED              ACCESS:SEQUENTIAL          

 OPENING BS_CFP_singleCond_v1.rch
 FILE TYPE:RCH   UNIT   19   STATUS:OLD    
 FORMAT:FORMATTED              ACCESS:SEQUENTIAL          

 OPENING BS_CFP_singleCond_v1.hds
 FILE TYPE:DATA(BINARY)   UNIT   51   STATUS:REPLACE
 FORMAT:BINARY                 ACCESS:SEQUENTIAL          

 OPENING BS_CFP_singleCond_v1.cbc
 FILE TYPE:DATA(BINARY)   UNIT   50   STATUS:REPLACE
 FORMAT:BINARY                 ACCESS:SEQUENTIAL          

 BAS -- BASIC PACKAGE, VERSION 7, 5/2/2005 INPUT READ FROM UNIT   13

 DISCRETIZATION INPUT DATA READ FROM UNIT   11
 # DIS package for MODFLOW-2005 generated by Flopy 3.3.6
    5 LAYERS       280 ROWS       364 COLUMNS
    1 STRESS PERIOD(S) IN SIMULATION
 MODEL TIME UNIT IS YEARS
 MODEL LENGTH UNIT IS METERS
  Confining bed flag for each layer:
   0   0   0   0   0

                     DELR =   10.0000    

                     DELC =   10.0000    



           TOP ELEVATION OF LAYER 1
 READING ON UNIT   11 WITH FORMAT: (364E15.6)          



             MODEL LAYER BOTTOM EL. FOR LAYER   1
 READING ON UNIT   11 WITH FORMAT: (364E15.6)          



             MODEL LAYER BOTTOM EL. FOR LAYER   2
 READING ON UNIT   11 WITH FORMAT: (364E15.6)          



             MODEL LAYER BOTTOM EL. FOR LAYER   3
 READING ON UNIT   11 WITH FORMAT: (364E15.6)          



             MODEL LAYER BOTTOM EL. FOR LAYER   4
 READING ON UNIT   11 WITH FORMAT: (364E15.6)          



             MODEL LAYER BOTTOM EL. FOR LAYER   5
 READING ON UNIT   11 WITH FORMAT: (364E15.6)          


 STRESS PERIOD     LENGTH       TIME STEPS     MULTIPLIER FOR DELT    SS FLAG
 ----------------------------------------------------------------------------
        1         1.000000          1                    1.000         SS

 STEADY-STATE SIMULATION



 
 # BAS6 package for MODFLOW-2005 generated by Flopy 3.3.6                        
 THE FREE FORMAT OPTION HAS BEEN SELECTED



                     BOUNDARY ARRAY FOR LAYER   1
 READING ON UNIT   13 WITH FORMAT: (364I10)            



                     BOUNDARY ARRAY FOR LAYER   2
 READING ON UNIT   13 WITH FORMAT: (364I10)            



                     BOUNDARY ARRAY FOR LAYER   3
 READING ON UNIT   13 WITH FORMAT: (364I10)            



                     BOUNDARY ARRAY FOR LAYER   4
 READING ON UNIT   13 WITH FORMAT: (364I10)            



                     BOUNDARY ARRAY FOR LAYER   5
 READING ON UNIT   13 WITH FORMAT: (364I10)            

 AQUIFER HEAD WILL BE SET TO  -999.99     AT ALL NO-FLOW NODES (IBOUND=0).



                       INITIAL HEAD FOR LAYER   1
 READING ON UNIT   13 WITH FORMAT: (364E15.6)          



                       INITIAL HEAD FOR LAYER   2
 READING ON UNIT   13 WITH FORMAT: (364E15.6)          



                       INITIAL HEAD FOR LAYER   3
 READING ON UNIT   13 WITH FORMAT: (364E15.6)          



                       INITIAL HEAD FOR LAYER   4
 READING ON UNIT   13 WITH FORMAT: (364E15.6)          



                       INITIAL HEAD FOR LAYER   5
 READING ON UNIT   13 WITH FORMAT: (364E15.6)          
 # OC package for MODFLOW-2005 generated by Flopy 3.3.6

 OUTPUT CONTROL IS SPECIFIED ONLY AT TIME STEPS FOR WHICH OUTPUT IS DESIRED
 COMPACT CELL-BY-CELL BUDGET FILES WILL BE WRITTEN
 AUXILIARY DATA WILL BE SAVED IN CELL-BY-CELL BUDGET FILES
 HEAD PRINT FORMAT CODE IS   0    DRAWDOWN PRINT FORMAT CODE IS   0
 HEADS WILL BE SAVED ON UNIT   51    DRAWDOWNS WILL BE SAVED ON UNIT    0

 LPF -- LAYER-PROPERTY FLOW PACKAGE, VERSION 7, 5/2/2005
         INPUT READ FROM UNIT   15
 # LPF package for MODFLOW-2005 generated by Flopy 3.3.6
 HEAD AT CELLS THAT CONVERT TO DRY= -1.00000E+30
 No named parameters

   LAYER FLAGS:
 LAYER       LAYTYP        LAYAVG         CHANI        LAYVKA        LAYWET
 ---------------------------------------------------------------------------
    1             2             0     1.000E+00             0             0
    2             2             0     1.000E+00             0             0
    3             2             0     1.000E+00             0             0
    4             2             0     1.000E+00             0             0
    5             2             0     1.000E+00             0             0

   INTERPRETATION OF LAYER FLAGS:
                        INTERBLOCK     HORIZONTAL    DATA IN
         LAYER TYPE   TRANSMISSIVITY   ANISOTROPY   ARRAY VKA   WETTABILITY
 LAYER      (LAYTYP)      (LAYAVG)       (CHANI)      (LAYVKA)      (LAYWET)
 ---------------------------------------------------------------------------
    1   CONVERTIBLE      HARMONIC     1.000E+00    VERTICAL K  NON-WETTABLE
    2   CONVERTIBLE      HARMONIC     1.000E+00    VERTICAL K  NON-WETTABLE
    3   CONVERTIBLE      HARMONIC     1.000E+00    VERTICAL K  NON-WETTABLE
    4   CONVERTIBLE      HARMONIC     1.000E+00    VERTICAL K  NON-WETTABLE
    5   CONVERTIBLE      HARMONIC     1.000E+00    VERTICAL K  NON-WETTABLE

 WETTING CAPABILITY IS NOT ACTIVE IN ANY LAYER



              HYD. COND. ALONG ROWS FOR LAYER   1
 READING ON UNIT   15 WITH FORMAT: (364E15.6)          



                VERTICAL HYD. COND. FOR LAYER   1
 READING ON UNIT   15 WITH FORMAT: (364E15.6)          



              HYD. COND. ALONG ROWS FOR LAYER   2
 READING ON UNIT   15 WITH FORMAT: (364E15.6)          



                VERTICAL HYD. COND. FOR LAYER   2
 READING ON UNIT   15 WITH FORMAT: (364E15.6)          



              HYD. COND. ALONG ROWS FOR LAYER   3
 READING ON UNIT   15 WITH FORMAT: (364E15.6)          



                VERTICAL HYD. COND. FOR LAYER   3
 READING ON UNIT   15 WITH FORMAT: (364E15.6)          



              HYD. COND. ALONG ROWS FOR LAYER   4
 READING ON UNIT   15 WITH FORMAT: (364E15.6)          



                VERTICAL HYD. COND. FOR LAYER   4
 READING ON UNIT   15 WITH FORMAT: (364E15.6)          



              HYD. COND. ALONG ROWS FOR LAYER   5
 READING ON UNIT   15 WITH FORMAT: (364E15.6)          



                VERTICAL HYD. COND. FOR LAYER   5
 READING ON UNIT   15 WITH FORMAT: (364E15.6)          

 RCH -- RECHARGE PACKAGE, VERSION 7, 5/2/2005 INPUT READ FROM UNIT   19
 # RCH package for MODFLOW-2005 generated by Flopy 3.3.6
 No named parameters
 OPTION 1 -- RECHARGE TO TOP LAYER
 CELL-BY-CELL FLOWS WILL BE SAVED ON UNIT   50


     0 Recharge parameters

 PCG -- CONJUGATE-GRADIENT SOLUTION PACKAGE, VERSION 7, 5/2/2005
 # PCG package for MODFLOW-2005 generated by Flopy 3.3.6
 MAXIMUM OF     40 CALLS OF SOLUTION ROUTINE
 MAXIMUM OF     10 INTERNAL ITERATIONS PER CALL TO SOLUTION ROUTINE
 MATRIX PRECONDITIONING TYPE :    2
 IHCOFADD option -- When an active cell is surrounded by dry cells, convert
 the cell to dry only if storage and head-dependent boundary flow are 0.



                                    SOLUTION BY THE CONJUGATE-GRADIENT METHOD
                                   -------------------------------------------
                    MAXIMUM NUMBER OF CALLS TO PCG ROUTINE =       40
                        MAXIMUM ITERATIONS PER CALL TO PCG =       10
                               MATRIX PRECONDITIONING TYPE =        2
                                                      THE MATRIX WILL BE SCALED
        RELAXATION FACTOR (ONLY USED WITH PRECOND. TYPE 1) =    0.97000E+00
 PARAMETER OF POLYNOMIAL PRECOND. = 2 (2) OR IS CALCULATED :        2
                         HEAD CHANGE CRITERION FOR CLOSURE =    0.12000E+05
                     RESIDUAL CHANGE CRITERION FOR CLOSURE =    0.10000E+05
            PCG HEAD AND RESIDUAL CHANGE PRINTOUT INTERVAL =        5
     PRINTING FROM SOLVER IS LIMITED(1) OR SUPPRESSED (>1) =        0
                            STEADY-STATE DAMPING PARAMETER =    0.10000E+01
                               TRANSIENT DAMPING PARAMETER =    0.10000E+01
1
                            STRESS PERIOD NO.    1, LENGTH =   1.000000    
                            -----------------------------------------------

                              NUMBER OF TIME STEPS =     1

                               MULTIPLIER FOR DELT =     1.000

                            INITIAL TIME STEP SIZE =   1.000000    



                           RECHARGE
 READING ON UNIT   19 WITH FORMAT: (364E15.6)          
 
 SOLVING FOR HEAD 

 CELL CONVERSIONS FOR ITER.=  1  LAYER=  1  STEP=  1  PERIOD=   1   (ROW,COL)
    DRY(  1,  1)   DRY(  1,  2)   DRY(  1,  3)   DRY(  1,  4)   DRY(  1,  5)   
    DRY(  1,  6)   DRY(  1,  7)   DRY(  1,  8)   DRY(  1,  9)   DRY(  1, 10)   
    DRY(  1, 11)   DRY(  1, 12)   DRY(  1, 13)   DRY(  1, 14)   DRY(  1, 15)   
    DRY(  1, 22)   DRY(  1, 23)   DRY(  1, 24)   DRY(  1, 25)   DRY(  1, 26)   
    DRY(  1, 27)   DRY(  1, 28)   DRY(  1, 29)   DRY(  1, 30)   DRY(  1, 31)   
    DRY(  1, 32)   DRY(  1, 33)   DRY(  1, 34)   DRY(  1, 35)   DRY(  1, 36)   
    DRY(  1, 37)   DRY(  1, 38)   DRY(  1, 39)   DRY(  1, 40)   DRY(  1, 41)   
    DRY(  1, 42)   DRY(  1, 43)   DRY(  1, 44)   DRY(  1, 45)   DRY(  1, 46)   
    DRY(  1, 47)   DRY(  1, 48)   DRY(  1, 49)   DRY(  1, 50)   DRY(  1, 51)   
    DRY(  1, 52)   DRY(  1, 53)   DRY(  1, 54)   DRY(  1, 55)   DRY(  1, 56)   
    DRY(  1, 57)   DRY(  1, 63)   DRY(  1, 75)   DRY(  1, 78)   DRY(  1,185)   
    DRY(  1,186)   DRY(  1,187)   DRY(  1,188)   DRY(  1,189)   DRY(  1,190)   
    DRY(  1,191)   DRY(  1,192)   DRY(  1,193)   DRY(  1,194)   DRY(  1,195)   
    DRY(  1,223)   DRY(  1,224)   DRY(  1,225)   DRY(  1,226)   DRY(  1,227)   
    DRY(  1,228)   DRY(  1,229)   DRY(  1,230)   DRY(  1,231)   DRY(  1,232)   
    DRY(  1,233)   DRY(  1,234)   DRY(  1,235)   DRY(  1,236)   DRY(  1,237)   
    DRY(  1,238)   DRY(  1,239)   DRY(  1,240)   DRY(  1,241)   DRY(  1,242)   
    DRY(  1,243)   DRY(  1,244)   DRY(  1,245)   DRY(  1,246)   DRY(  1,247)   
    DRY(  1,248)   DRY(  1,253)   DRY(  1,259)   DRY(  1,260)   DRY(  1,261)   
    DRY(  1,262)   DRY(  1,263)   DRY(  1,264)   DRY(  1,265)   DRY(  1,266)   
    DRY(  1,267)   DRY(  1,268)   DRY(  1,269)   DRY(  1,270)   DRY(  1,271)   
    DRY(  1,272)   DRY(  1,273)   DRY(  1,274)   DRY(  1,275)   DRY(  1,276)   
    DRY(  1,277)   DRY(  1,278)   DRY(  1,279)   DRY(  1,280)   DRY(  1,281)   
    DRY(  1,282)   DRY(  1,283)   DRY(  1,284)   DRY(  1,285)   DRY(  1,286)   
    DRY(  1,287)   DRY(  1,288)   DRY(  2,  1)   DRY(  2,  2)   DRY(  2,  3)   
    DRY(  2,  4)   DRY(  2,  5)   DRY(  2,  6)   DRY(  2,  7)   DRY(  2,  8)   
    DRY(  2,  9)   DRY(  2, 10)   DRY(  2, 11)   DRY(  2, 12)   DRY(  2, 13)   
    DRY(  2, 14)   DRY(  2, 15)   DRY(  2, 16)   DRY(  2, 22)   DRY(  2, 23)   
    DRY(  2, 24)   DRY(  2, 25)   DRY(  2, 26)   DRY(  2, 27)   DRY(  2, 28)   
    DRY(  2, 29)   DRY(  2, 30)   DRY(  2, 31)   DRY(  2, 32)   DRY(  2, 33)   
    DRY(  2, 34)   DRY(  2, 35)   DRY(  2, 36)   DRY(  2, 37)   DRY(  2, 38)   
    DRY(  2, 39)   DRY(  2, 40)   DRY(  2, 41)   DRY(  2, 42)   DRY(  2, 43)   
    DRY(  2, 44)   DRY(  2, 45)   DRY(  2, 46)   DRY(  2, 47)   DRY(  2, 48)   
    DRY(  2, 49)   DRY(  2, 50)   DRY(  2, 51)   DRY(  2, 52)   DRY(  2, 53)   
    DRY(  2, 54)   DRY(  2, 55)   DRY(  2, 56)   DRY(  2, 57)   DRY(  2, 63)   
    DRY(  2, 75)   DRY(  2, 79)   DRY(  2, 97)   DRY(  2, 98)   DRY(  2, 99)   
    DRY(  2,185)   DRY(  2,186)   DRY(  2,187)   DRY(  2,188)   DRY(  2,189)   
    DRY(  2,190)   DRY(  2,191)   DRY(  2,192)   DRY(  2,193)   DRY(  2,194)   
    DRY(  2,223)   DRY(  2,224)   DRY(  2,225)   DRY(  2,226)   DRY(  2,227)   
    DRY(  2,228)   DRY(  2,229)   DRY(  2,230)   DRY(  2,231)   DRY(  2,232)   
    DRY(  2,233)   DRY(  2,234)   DRY(  2,235)   DRY(  2,236)   DRY(  2,237)   
    DRY(  2,238)   DRY(  2,239)   DRY(  2,240)   DRY(  2,241)   DRY(  2,242)   
    DRY(  2,243)   DRY(  2,244)   DRY(  2,245)   DRY(  2,246)   DRY(  2,247)   
    DRY(  2,248)   DRY(  2,253)   DRY(  2,258)   DRY(  2,259)   DRY(  2,260)   
    DRY(  2,261)   DRY(  2,262)   DRY(  2,263)   DRY(  2,264)   DRY(  2,265)   
    DRY(  2,266)   DRY(  2,267)   DRY(  2,268)   DRY(  2,269)   DRY(  2,270)   
    DRY(  2,271)   DRY(  2,272)   DRY(  2,273)   DRY(  2,274)   DRY(  2,275)   
    DRY(  2,276)   DRY(  2,277)   DRY(  2,278)   DRY(  2,279)   DRY(  2,280)   
    DRY(  2,281)   DRY(  2,282)   DRY(  2,283)   DRY(  2,284)   DRY(  2,285)   
    DRY(  2,286)   DRY(  2,287)   DRY(  2,288)   DRY(  3,  1)   DRY(  3,  2)   
    DRY(  3,  3)   DRY(  3,  4)   DRY(  3,  5)   DRY(  3,  6)   DRY(  3,  7)   
    DRY(  3,  8)   DRY(  3,  9)   DRY(  3, 10)   DRY(  3, 11)   DRY(  3, 12)   
    DRY(  3, 13)   DRY(  3, 14)   DRY(  3, 15)   DRY(  3, 16)   DRY(  3, 23)   
    DRY(  3, 24)   DRY(  3, 25)   DRY(  3, 26)   DRY(  3, 27)   DRY(  3, 28)   
    DRY(  3, 29)   DRY(  3, 30)   DRY(  3, 31)   DRY(  3, 32)   DRY(  3, 33)   
    DRY(  3, 34)   DRY(  3, 35)   DRY(  3, 36)   DRY(  3, 37)   DRY(  3, 38)   
    DRY(  3, 39)   DRY(  3, 40)   DRY(  3, 41)   DRY(  3, 42)   DRY(  3, 43)   
    DRY(  3, 44)   DRY(  3, 45)   DRY(  3, 46)   DRY(  3, 47)   DRY(  3, 48)   
    DRY(  3, 49)   DRY(  3, 50)   DRY(  3, 51)   DRY(  3, 52)   DRY(  3, 53)   
    DRY(  3, 54)   DRY(  3, 55)   DRY(  3, 56)   DRY(  3, 57)   DRY(  3, 58)   
    DRY(  3, 61)   DRY(  3, 62)   DRY(  3, 63)   DRY(  3, 95)   DRY(  3, 96)   
    DRY(  3, 97)   DRY(  3, 98)   DRY(  3, 99)   DRY(  3,100)   DRY(  3,101)   
    DRY(  3,185)   DRY(  3,186)   DRY(  3,187)   DRY(  3,188)   DRY(  3,189)   
    DRY(  3,190)   DRY(  3,191)   DRY(  3,192)   DRY(  3,193)   DRY(  3,220)   
    DRY(  3,223)   DRY(  3,224)   DRY(  3,225)   DRY(  3,226)   DRY(  3,227)   
    DRY(  3,228)   DRY(  3,229)   DRY(  3,230)   DRY(  3,231)   DRY(  3,232)   
    DRY(  3,233)   DRY(  3,234)   DRY(  3,235)   DRY(  3,236)   DRY(  3,237)   
    DRY(  3,238)   DRY(  3,239)   DRY(  3,240)   DRY(  3,241)   DRY(  3,242)   
    DRY(  3,243)   DRY(  3,244)   DRY(  3,245)   DRY(  3,246)   DRY(  3,247)   
    DRY(  3,253)   DRY(  3,255)   DRY(  3,257)   DRY(  3,258)   DRY(  3,259)   
    DRY(  3,260)   DRY(  3,261)   DRY(  3,262)   DRY(  3,263)   DRY(  3,264)   
    DRY(  3,265)   DRY(  3,266)   DRY(  3,267)   DRY(  3,268)   DRY(  3,269)   
    DRY(  3,270)   DRY(  3,271)   DRY(  3,272)   DRY(  3,273)   DRY(  3,274)   
    DRY(  3,275)   DRY(  3,276)   DRY(  3,277)   DRY(  3,278)   DRY(  3,279)   
    DRY(  3,280)   DRY(  3,281)   DRY(  3,282)   DRY(  3,283)   DRY(  3,284)   
    DRY(  3,285)   DRY(  3,286)   DRY(  3,287)   DRY(  3,288)   DRY(  4,  1)   
    DRY(  4,  2)   DRY(  4,  3)   DRY(  4,  4)   DRY(  4,  5)   DRY(  4,  6)   
    DRY(  4,  7)   DRY(  4,  8)   DRY(  4,  9)   DRY(  4, 10)   DRY(  4, 11)   
    DRY(  4, 12)   DRY(  4, 13)   DRY(  4, 14)   DRY(  4, 15)   DRY(  4, 16)   
    DRY(  4, 17)   DRY(  4, 25)   DRY(  4, 26)   DRY(  4, 27)   DRY(  4, 28)   
    DRY(  4, 29)   DRY(  4, 30)   DRY(  4, 31)   DRY(  4, 32)   DRY(  4, 33)   
    DRY(  4, 34)   DRY(  4, 35)   DRY(  4, 36)   DRY(  4, 37)   DRY(  4, 38)   
    DRY(  4, 39)   DRY(  4, 40)   DRY(  4, 41)   DRY(  4, 42)   DRY(  4, 43)   
    DRY(  4, 44)   DRY(  4, 45)   DRY(  4, 46)   DRY(  4, 47)   DRY(  4, 48)   
    DRY(  4, 49)   DRY(  4, 50)   DRY(  4, 51)   DRY(  4, 52)   DRY(  4, 53)   
    DRY(  4, 54)   DRY(  4, 55)   DRY(  4, 56)   DRY(  4, 57)   DRY(  4, 58)   
    DRY(  4, 59)   DRY(  4, 60)   DRY(  4, 61)   DRY(  4, 62)   DRY(  4, 63)   
    DRY(  4, 94)   DRY(  4, 95)   DRY(  4, 96)   DRY(  4, 97)   DRY(  4, 98)   
    DRY(  4, 99)   DRY(  4,100)   DRY(  4,101)   DRY(  4,102)   DRY(  4,103)   
    DRY(  4,185)   DRY(  4,186)   DRY(  4,187)   DRY(  4,188)   DRY(  4,189)   
    DRY(  4,190)   DRY(  4,191)   DRY(  4,192)   DRY(  4,220)   DRY(  4,221)   
    DRY(  4,223)   DRY(  4,224)   DRY(  4,225)   DRY(  4,226)   DRY(  4,227)   
    DRY(  4,228)   DRY(  4,229)   DRY(  4,230)   DRY(  4,231)   DRY(  4,232)   
    DRY(  4,233)   DRY(  4,234)   DRY(  4,235)   DRY(  4,236)   DRY(  4,237)   
    DRY(  4,238)   DRY(  4,239)   DRY(  4,240)   DRY(  4,241)   DRY(  4,242)   
    DRY(  4,243)   DRY(  4,244)   DRY(  4,245)   DRY(  4,246)   DRY(  4,247)   
    DRY(  4,249)   DRY(  4,250)   DRY(  4,253)   DRY(  4,255)   DRY(  4,256)   
    DRY(  4,257)   DRY(  4,258)   DRY(  4,259)   DRY(  4,260)   DRY(  4,261)   
    DRY(  4,262)   DRY(  4,263)   DRY(  4,264)   DRY(  4,265)   DRY(  4,266)   
    DRY(  4,267)   DRY(  4,268)   DRY(  4,269)   DRY(  4,270)   DRY(  4,271)   
    DRY(  4,272)   DRY(  4,273)   DRY(  4,274)   DRY(  4,275)   DRY(  4,276)   
    DRY(  4,277)   DRY(  4,278)   DRY(  4,279)   DRY(  4,280)   DRY(  4,281)   
    DRY(  4,282)   DRY(  4,283)   DRY(  4,284)   DRY(  4,285)   DRY(  4,286)   
    DRY(  4,287)   DRY(  4,288)   DRY(  5,  1)   DRY(  5,  2)   DRY(  5,  3)   
    DRY(  5,  4)   DRY(  5,  5)   DRY(  5,  6)   DRY(  5,  7)   DRY(  5,  8)   
    DRY(  5,  9)   DRY(  5, 10)   DRY(  5, 11)   DRY(  5, 12)   DRY(  5, 13)   
    DRY(  5, 14)   DRY(  5, 15)   DRY(  5, 16)   DRY(  5, 17)   DRY(  5, 25)   
    DRY(  5, 26)   DRY(  5, 27)   DRY(  5, 28)   DRY(  5, 29)   DRY(  5, 30)   
    DRY(  5, 31)   DRY(  5, 32)   DRY(  5, 33)   DRY(  5, 34)   DRY(  5, 35)   
    DRY(  5, 36)   DRY(  5, 37)   DRY(  5, 38)   DRY(  5, 39)   DRY(  5, 40)   
    DRY(  5, 41)   DRY(  5, 42)   DRY(  5, 43)   DRY(  5, 44)   DRY(  5, 45)   
    DRY(  5, 46)   DRY(  5, 47)   DRY(  5, 48)   DRY(  5, 49)   DRY(  5, 50)   
    DRY(  5, 51)   DRY(  5, 52)   DRY(  5, 53)   DRY(  5, 54)   DRY(  5, 55)   
    DRY(  5, 56)   DRY(  5, 57)   DRY(  5, 58)   DRY(  5, 59)   DRY(  5, 60)   
    DRY(  5, 61)   DRY(  5, 62)   DRY(  5, 63)   DRY(  5, 94)   DRY(  5, 95)   
    DRY(  5, 96)   DRY(  5, 97)   DRY(  5, 98)   DRY(  5, 99)   DRY(  5,100)   
    DRY(  5,101)   DRY(  5,102)   DRY(  5,103)   DRY(  5,104)   DRY(  5,185)   
    DRY(  5,186)   DRY(  5,187)   DRY(  5,188)   DRY(  5,189)   DRY(  5,190)   
    DRY(  5,191)   DRY(  5,192)   DRY(  5,220)   DRY(  5,221)   DRY(  5,222)   
    DRY(  5,223)   DRY(  5,224)   DRY(  5,225)   DRY(  5,226)   DRY(  5,227)   
    DRY(  5,228)   DRY(  5,229)   DRY(  5,230)   DRY(  5,231)   DRY(  5,232)   
    DRY(  5,233)   DRY(  5,234)   DRY(  5,235)   DRY(  5,236)   DRY(  5,237)   
    DRY(  5,238)   DRY(  5,239)   DRY(  5,240)   DRY(  5,241)   DRY(  5,242)   
    DRY(  5,243)   DRY(  5,244)   DRY(  5,245)   DRY(  5,246)   DRY(  5,247)   
    DRY(  5,250)   DRY(  5,251)   DRY(  5,252)   DRY(  5,253)   DRY(  5,255)   
    DRY(  5,256)   DRY(  5,257)   DRY(  5,258)   DRY(  5,259)   DRY(  5,260)   
    DRY(  5,261)   DRY(  5,262)   DRY(  5,263)   DRY(  5,264)   DRY(  5,265)   
    DRY(  5,266)   DRY(  5,267)   DRY(  5,268)   DRY(  5,269)   DRY(  5,270)   
    DRY(  5,271)   DRY(  5,272)   DRY(  5,273)   DRY(  5,274)   DRY(  5,275)   
    DRY(  5,276)   DRY(  5,277)   DRY(  5,278)   DRY(  5,279)   DRY(  5,280)   
    DRY(  5,281)   DRY(  5,282)   DRY(  5,283)   DRY(  5,284)   DRY(  5,285)   
    DRY(  5,286)   DRY(  5,287)   DRY(  5,288)   DRY(  6,  1)   DRY(  6,  2)   
    DRY(  6,  3)   DRY(  6,  4)   DRY(  6,  5)   DRY(  6,  6)   DRY(  6,  7)   
    DRY(  6,  8)   DRY(  6,  9)   DRY(  6, 10)   DRY(  6, 11)   DRY(  6, 12)   
    DRY(  6, 13)   DRY(  6, 14)   DRY(  6, 15)   DRY(  6, 16)   DRY(  6, 17)   
    DRY(  6, 26)   DRY(  6, 27)   DRY(  6, 28)   DRY(  6, 29)   DRY(  6, 30)   
    DRY(  6, 31)   DRY(  6, 32)   DRY(  6, 33)   DRY(  6, 34)   DRY(  6, 35)   
    DRY(  6, 36)   DRY(  6, 37)   DRY(  6, 38)   DRY(  6, 39)   DRY(  6, 40)   
    DRY(  6, 41)   DRY(  6, 42)   DRY(  6, 43)   DRY(  6, 44)   DRY(  6, 45)   
    DRY(  6, 46)   DRY(  6, 47)   DRY(  6, 48)   DRY(  6, 49)   DRY(  6, 50)   
    DRY(  6, 51)   DRY(  6, 52)   DRY(  6, 53)   DRY(  6, 54)   DRY(  6, 55)   
    DRY(  6, 56)   DRY(  6, 57)   DRY(  6, 58)   DRY(  6, 59)   DRY(  6, 60)   
    DRY(  6, 61)   DRY(  6, 62)   DRY(  6, 63)   DRY(  6, 98)   DRY(  6, 99)   
    DRY(  6,100)   DRY(  6,101)   DRY(  6,102)   DRY(  6,103)   DRY(  6,104)   
    DRY(  6,105)   DRY(  6,184)   DRY(  6,185)   DRY(  6,186)   DRY(  6,187)   
    DRY(  6,188)   DRY(  6,189)   DRY(  6,190)   DRY(  6,191)   DRY(  6,192)   
    DRY(  6,193)   DRY(  6,194)   DRY(  6,195)   DRY(  6,218)   DRY(  6,221)   
    DRY(  6,222)   DRY(  6,223)   DRY(  6,224)   DRY(  6,225)   DRY(  6,226)   
    DRY(  6,227)   DRY(  6,228)   DRY(  6,229)   DRY(  6,230)   DRY(  6,231)   
    DRY(  6,232)   DRY(  6,233)   DRY(  6,234)   DRY(  6,235)   DRY(  6,236)   
    DRY(  6,237)   DRY(  6,238)   DRY(  6,239)   DRY(  6,240)   DRY(  6,241)   
    DRY(  6,242)   DRY(  6,243)   DRY(  6,244)   DRY(  6,245)   DRY(  6,246)   
    DRY(  6,250)   DRY(  6,251)   DRY(  6,252)   DRY(  6,253)   DRY(  6,255)   
    DRY(  6,256)   DRY(  6,257)   DRY(  6,258)   DRY(  6,259)   DRY(  6,260)   
    DRY(  6,261)   DRY(  6,262)   DRY(  6,263)   DRY(  6,264)   DRY(  6,265)   
    DRY(  6,266)   DRY(  6,267)   DRY(  6,268)   DRY(  6,269)   DRY(  6,270)   
    DRY(  6,271)   DRY(  6,272)   DRY(  6,273)   DRY(  6,274)   DRY(  6,275)   
    DRY(  6,276)   DRY(  6,277)   DRY(  6,278)   DRY(  6,279)   DRY(  6,280)   
    DRY(  6,281)   DRY(  6,282)   DRY(  6,283)   DRY(  6,284)   DRY(  6,285)   
    DRY(  6,286)   DRY(  6,287)   DRY(  6,288)   DRY(  7,  1)   DRY(  7,  2)   
    DRY(  7,  3)   DRY(  7,  4)   DRY(  7,  5)   DRY(  7,  6)   DRY(  7,  7)   
    DRY(  7,  8)   DRY(  7,  9)   DRY(  7, 10)   DRY(  7, 11)   DRY(  7, 12)   
    DRY(  7, 13)   DRY(  7, 14)   DRY(  7, 15)   DRY(  7, 16)   DRY(  7, 17)   
    DRY(  7, 18)   DRY(  7, 30)   DRY(  7, 31)   DRY(  7, 32)   DRY(  7, 33)   
    DRY(  7, 34)   DRY(  7, 35)   DRY(  7, 36)   DRY(  7, 37)   DRY(  7, 38)   
    DRY(  7, 39)   DRY(  7, 40)   DRY(  7, 41)   DRY(  7, 42)   DRY(  7, 43)   
    DRY(  7, 44)   DRY(  7, 45)   DRY(  7, 46)   DRY(  7, 47)   DRY(  7, 48)   
    DRY(  7, 49)   DRY(  7, 50)   DRY(  7, 51)   DRY(  7, 52)   DRY(  7, 53)   
    DRY(  7, 54)   DRY(  7, 55)   DRY(  7, 56)   DRY(  7, 57)   DRY(  7, 58)   
    DRY(  7, 59)   DRY(  7, 60)   DRY(  7, 61)   DRY(  7, 62)   DRY(  7, 63)   
    DRY(  7, 64)   DRY(  7, 65)   DRY(  7, 66)   DRY(  7,218)   DRY(  7,219)   
    DRY(  7,221)   DRY(  7,222)   DRY(  7,223)   DRY(  7,224)   DRY(  7,225)   
    DRY(  7,226)   DRY(  7,227)   DRY(  7,228)   DRY(  7,229)   DRY(  7,230)   
    DRY(  7,231)   DRY(  7,232)   DRY(  7,233)   DRY(  7,234)   DRY(  7,235)   
    DRY(  7,236)   DRY(  7,237)   DRY(  7,238)   DRY(  7,239)   DRY(  7,240)   
    DRY(  7,241)   DRY(  7,242)   DRY(  7,243)   DRY(  7,244)   DRY(  7,245)   
    DRY(  7,246)   DRY(  7,254)   DRY(  7,255)   DRY(  7,256)   DRY(  7,257)   
    DRY(  7,258)   DRY(  7,259)   DRY(  7,260)   DRY(  7,261)   DRY(  7,262)   
    DRY(  7,263)   DRY(  7,264)   DRY(  7,265)   DRY(  7,266)   DRY(  7,267)   
    DRY(  7,268)   DRY(  7,269)   DRY(  7,270)   DRY(  7,271)   DRY(  7,272)   
    DRY(  7,273)   DRY(  7,274)   DRY(  7,275)   DRY(  7,276)   DRY(  7,277)   
    DRY(  7,278)   DRY(  7,279)   DRY(  7,280)   DRY(  7,281)   DRY(  8,  1)   
    DRY(  8,  2)   DRY(  8,  3)   DRY(  8,  4)   DRY(  8,  5)   DRY(  8,  6)   
    DRY(  8,  7)   DRY(  8,  8)   DRY(  8,  9)   DRY(  8, 10)   DRY(  8, 13)   
    DRY(  8, 14)   DRY(  8, 15)   DRY(  8, 16)   DRY(  8, 17)   DRY(  8, 18)   
    DRY(  8, 29)   DRY(  8, 30)   DRY(  8, 31)   DRY(  8, 32)   DRY(  8, 33)   
    DRY(  8, 34)   DRY(  8, 35)   DRY(  8, 36)   DRY(  8, 37)   DRY(  8, 38)   
    DRY(  8, 39)   DRY(  8, 40)   DRY(  8, 41)   DRY(  8, 42)   DRY(  8, 43)   
    DRY(  8, 44)   DRY(  8, 45)   DRY(  8, 46)   DRY(  8, 47)   DRY(  8, 48)   
    DRY(  8, 49)   DRY(  8, 50)   DRY(  8, 51)   DRY(  8, 52)   DRY(  8, 53)   
    DRY(  8, 54)   DRY(  8, 55)   DRY(  8, 56)   DRY(  8, 57)   DRY(  8, 58)   
    DRY(  8, 59)   DRY(  8, 60)   DRY(  8, 61)   DRY(  8, 62)   DRY(  8, 63)   
    DRY(  8, 64)   DRY(  8, 65)   DRY(  8, 66)   DRY(  8, 98)   DRY(  8, 99)   
    DRY(  8,182)   DRY(  8,183)   DRY(  8,184)   DRY(  8,185)   DRY(  8,186)   
    DRY(  8,187)   DRY(  8,188)   DRY(  8,189)   DRY(  8,190)   DRY(  8,191)   
    DRY(  8,192)   DRY(  8,193)   DRY(  8,194)   DRY(  8,195)   DRY(  8,196)   
    DRY(  8,219)   DRY(  8,220)   DRY(  8,221)   DRY(  8,222)   DRY(  8,223)   
    DRY(  8,224)   DRY(  8,225)   DRY(  8,226)   DRY(  8,227)   DRY(  8,228)   
    DRY(  8,229)   DRY(  8,230)   DRY(  8,231)   DRY(  8,232)   DRY(  8,233)   
    DRY(  8,234)   DRY(  8,235)   DRY(  8,236)   DRY(  8,237)   DRY(  8,238)   
    DRY(  8,239)   DRY(  8,240)   DRY(  8,241)   DRY(  8,242)   DRY(  8,243)   
    DRY(  8,244)   DRY(  8,245)   DRY(  8,246)   DRY(  8,247)   DRY(  8,248)   
    DRY(  8,249)   DRY(  8,250)   DRY(  8,251)   DRY(  8,252)   DRY(  8,253)   
    DRY(  8,254)   DRY(  8,255)   DRY(  8,256)   DRY(  8,257)   DRY(  8,258)   
    DRY(  8,259)   DRY(  8,260)   DRY(  8,261)   DRY(  8,262)   DRY(  8,263)   
    DRY(  8,264)   DRY(  8,265)   DRY(  8,266)   DRY(  8,267)   DRY(  8,268)   
    DRY(  8,269)   DRY(  8,270)   DRY(  8,271)   DRY(  8,272)   DRY(  8,273)   
    DRY(  8,274)   DRY(  8,275)   DRY(  8,276)   DRY(  8,277)   DRY(  8,278)   
    DRY(  8,279)   DRY(  8,280)   DRY(  8,281)   DRY(  8,282)   DRY(  8,283)   
    DRY(  8,284)   DRY(  8,285)   DRY(  8,286)   DRY(  8,287)   DRY(  8,298)   
    DRY(  9,  1)   DRY(  9,  2)   DRY(  9,  3)   DRY(  9,  4)   DRY(  9,  5)   
    DRY(  9,  6)   DRY(  9,  7)   DRY(  9,  8)   DRY(  9,  9)   DRY(  9, 10)   
    DRY(  9, 11)   DRY(  9, 12)   DRY(  9, 13)   DRY(  9, 14)   DRY(  9, 15)   
    DRY(  9, 16)   DRY(  9, 17)   DRY(  9, 28)   DRY(  9, 29)   DRY(  9, 30)   
    DRY(  9, 31)   DRY(  9, 32)   DRY(  9, 33)   DRY(  9, 34)   DRY(  9, 35)   
    DRY(  9, 36)   DRY(  9, 37)   DRY(  9, 38)   DRY(  9, 39)   DRY(  9, 40)   
    DRY(  9, 41)   DRY(  9, 42)   DRY(  9, 43)   DRY(  9, 44)   DRY(  9, 45)   
    DRY(  9, 46)   DRY(  9, 47)   DRY(  9, 48)   DRY(  9, 49)   DRY(  9, 50)   
    DRY(  9, 51)   DRY(  9, 52)   DRY(  9, 53)   DRY(  9, 54)   DRY(  9, 55)   
    DRY(  9, 56)   DRY(  9, 57)   DRY(  9, 58)   DRY(  9, 59)   DRY(  9, 60)   
    DRY(  9, 61)   DRY(  9, 62)   DRY(  9, 63)   DRY(  9, 64)   DRY(  9, 66)   
    DRY(  9, 94)   DRY(  9, 95)   DRY(  9, 96)   DRY(  9, 97)   DRY(  9, 98)   
    DRY(  9, 99)   DRY(  9,100)   DRY(  9,101)   DRY(  9,102)   DRY(  9,103)   
    DRY(  9,104)   DRY(  9,105)   DRY(  9,115)   DRY(  9,120)   DRY(  9,166)   
    DRY(  9,167)   DRY(  9,168)   DRY(  9,169)   DRY(  9,187)   DRY(  9,188)   
    DRY(  9,189)   DRY(  9,190)   DRY(  9,191)   DRY(  9,192)   DRY(  9,193)   
    DRY(  9,194)   DRY(  9,195)   DRY(  9,196)   DRY(  9,197)   DRY(  9,198)   
    DRY(  9,202)   DRY(  9,216)   DRY(  9,217)   DRY(  9,219)   DRY(  9,220)   
    DRY(  9,221)   DRY(  9,222)   DRY(  9,223)   DRY(  9,224)   DRY(  9,225)   
    DRY(  9,226)   DRY(  9,227)   DRY(  9,228)   DRY(  9,229)   DRY(  9,230)   
    DRY(  9,231)   DRY(  9,232)   DRY(  9,233)   DRY(  9,234)   DRY(  9,235)   
    DRY(  9,236)   DRY(  9,237)   DRY(  9,238)   DRY(  9,239)   DRY(  9,240)   
    DRY(  9,241)   DRY(  9,242)   DRY(  9,243)   DRY(  9,244)   DRY(  9,245)   
    DRY(  9,246)   DRY(  9,247)   DRY(  9,248)   DRY(  9,249)   DRY(  9,250)   
    DRY(  9,251)   DRY(  9,252)   DRY(  9,253)   DRY(  9,254)   DRY(  9,255)   
    DRY(  9,256)   DRY(  9,257)   DRY(  9,258)   DRY(  9,259)   DRY(  9,260)   
    DRY(  9,261)   DRY(  9,262)   DRY(  9,263)   DRY(  9,264)   DRY(  9,265)   
    DRY(  9,266)   DRY(  9,267)   DRY(  9,268)   DRY(  9,269)   DRY(  9,270)   
    DRY(  9,271)   DRY(  9,272)   DRY(  9,273)   DRY(  9,274)   DRY(  9,275)   
    DRY(  9,276)   DRY(  9,277)   DRY(  9,278)   DRY(  9,279)   DRY(  9,280)   
    DRY(  9,281)   DRY(  9,282)   DRY(  9,283)   DRY(  9,284)   DRY(  9,285)   
    DRY(  9,286)   DRY(  9,287)   DRY(  9,288)   DRY(  9,298)   DRY( 10,  1)   
    DRY( 10,  2)   DRY( 10,  3)   DRY( 10,  4)   DRY( 10,  5)   DRY( 10,  6)   
    DRY( 10,  7)   DRY( 10,  8)   DRY( 10,  9)   DRY( 10, 10)   DRY( 10, 11)   
    DRY( 10, 13)   DRY( 10, 14)   DRY( 10, 15)   DRY( 10, 17)   DRY( 10, 28)   
    DRY( 10, 29)   DRY( 10, 30)   DRY( 10, 31)   DRY( 10, 32)   DRY( 10, 33)   
    DRY( 10, 34)   DRY( 10, 35)   DRY( 10, 36)   DRY( 10, 37)   DRY( 10, 38)   
    DRY( 10, 39)   DRY( 10, 40)   DRY( 10, 41)   DRY( 10, 42)   DRY( 10, 43)   
    DRY( 10, 44)   DRY( 10, 45)   DRY( 10, 46)   DRY( 10, 47)   DRY( 10, 48)   
    DRY( 10, 49)   DRY( 10, 50)   DRY( 10, 51)   DRY( 10, 52)   DRY( 10, 53)   
    DRY( 10, 54)   DRY( 10, 55)   DRY( 10, 56)   DRY( 10, 57)   DRY( 10, 58)   
    DRY( 10, 59)   DRY( 10, 60)   DRY( 10, 61)   DRY( 10, 62)   DRY( 10, 63)   
    DRY( 10, 64)   DRY( 10, 65)   DRY( 10, 66)   DRY( 10, 67)   DRY( 10, 95)   
    DRY( 10, 96)   DRY( 10, 97)   DRY( 10, 98)   DRY( 10, 99)   DRY( 10,100)   
    DRY( 10,101)   DRY( 10,102)   DRY( 10,103)   DRY( 10,104)   DRY( 10,105)   
    DRY( 10,106)   DRY( 10,114)   DRY( 10,115)   DRY( 10,116)   DRY( 10,117)   
    DRY( 10,164)   DRY( 10,165)   DRY( 10,166)   DRY( 10,167)   DRY( 10,168)   
    DRY( 10,169)   DRY( 10,187)   DRY( 10,188)   DRY( 10,189)   DRY( 10,190)   
    DRY( 10,191)   DRY( 10,192)   DRY( 10,193)   DRY( 10,194)   DRY( 10,195)   
    DRY( 10,196)   DRY( 10,197)   DRY( 10,198)   DRY( 10,202)   DRY( 10,216)   
    DRY( 10,217)   DRY( 10,218)   DRY( 10,219)   DRY( 10,220)   DRY( 10,221)   
    DRY( 10,222)   DRY( 10,223)   DRY( 10,224)   DRY( 10,225)   DRY( 10,226)   
    DRY( 10,227)   DRY( 10,228)   DRY( 10,229)   DRY( 10,230)   DRY( 10,231)   
    DRY( 10,232)   DRY( 10,233)   DRY( 10,234)   DRY( 10,235)   DRY( 10,236)   
    DRY( 10,237)   DRY( 10,238)   DRY( 10,239)   DRY( 10,240)   DRY( 10,241)   
    DRY( 10,242)   DRY( 10,243)   DRY( 10,244)   DRY( 10,245)   DRY( 10,246)   
    DRY( 10,247)   DRY( 10,248)   DRY( 10,249)   DRY( 10,250)   DRY( 10,251)   
    DRY( 10,252)   DRY( 10,253)   DRY( 10,254)   DRY( 10,255)   DRY( 10,256)   
    DRY( 10,257)   DRY( 10,258)   DRY( 10,259)   DRY( 10,260)   DRY( 10,261)   
    DRY( 10,262)   DRY( 10,263)   DRY( 10,264)   DRY( 10,265)   DRY( 10,266)   
    DRY( 10,267)   DRY( 10,268)   DRY( 10,269)   DRY( 10,270)   DRY( 10,271)   
    DRY( 10,272)   DRY( 10,273)   DRY( 10,274)   DRY( 10,275)   DRY( 10,276)   
    DRY( 10,277)   DRY( 10,278)   DRY( 10,279)   DRY( 10,280)   DRY( 10,281)   
    DRY( 10,282)   DRY( 10,283)   DRY( 10,284)   DRY( 10,285)   DRY( 10,298)   
    DRY( 11,  1)   DRY( 11,  2)   DRY( 11,  3)   DRY( 11,  4)   DRY( 11,  5)   
    DRY( 11,  6)   DRY( 11,  7)   DRY( 11,  8)   DRY( 11,  9)   DRY( 11, 10)   
    DRY( 11, 11)   DRY( 11, 12)   DRY( 11, 13)   DRY( 11, 27)   DRY( 11, 28)   
    DRY( 11, 29)   DRY( 11, 30)   DRY( 11, 31)   DRY( 11, 32)   DRY( 11, 33)   
    DRY( 11, 34)   DRY( 11, 35)   DRY( 11, 36)   DRY( 11, 37)   DRY( 11, 38)   
    DRY( 11, 39)   DRY( 11, 40)   DRY( 11, 41)   DRY( 11, 42)   DRY( 11, 43)   
    DRY( 11, 44)   DRY( 11, 45)   DRY( 11, 46)   DRY( 11, 47)   DRY( 11, 48)   
    DRY( 11, 49)   DRY( 11, 50)   DRY( 11, 51)   DRY( 11, 52)   DRY( 11, 53)   
    DRY( 11, 54)   DRY( 11, 55)   DRY( 11, 56)   DRY( 11, 57)   DRY( 11, 58)   
    DRY( 11, 59)   DRY( 11, 60)   DRY( 11, 61)   DRY( 11, 62)   DRY( 11, 63)   
    DRY( 11, 64)   DRY( 11, 65)   DRY( 11, 67)   DRY( 11, 95)   DRY( 11, 96)   
    DRY( 11, 97)   DRY( 11, 98)   DRY( 11, 99)   DRY( 11,100)   DRY( 11,101)   
    DRY( 11,102)   DRY( 11,103)   DRY( 11,104)   DRY( 11,105)   DRY( 11,106)   
    DRY( 11,107)   DRY( 11,108)   DRY( 11,109)   DRY( 11,113)   DRY( 11,114)   
    DRY( 11,115)   DRY( 11,116)   DRY( 11,117)   DRY( 11,163)   DRY( 11,164)   
    DRY( 11,165)   DRY( 11,166)   DRY( 11,167)   DRY( 11,168)   DRY( 11,169)   
    DRY( 11,186)   DRY( 11,187)   DRY( 11,188)   DRY( 11,189)   DRY( 11,190)   
    DRY( 11,191)   DRY( 11,192)   DRY( 11,193)   DRY( 11,194)   DRY( 11,195)   
    DRY( 11,196)   DRY( 11,197)   DRY( 11,198)   DRY( 11,201)   DRY( 11,202)   
    DRY( 11,217)   DRY( 11,218)   DRY( 11,219)   DRY( 11,220)   DRY( 11,221)   
    DRY( 11,222)   DRY( 11,223)   DRY( 11,224)   DRY( 11,225)   DRY( 11,226)   
    DRY( 11,227)   DRY( 11,228)   DRY( 11,229)   DRY( 11,230)   DRY( 11,231)   
    DRY( 11,232)   DRY( 11,233)   DRY( 11,234)   DRY( 11,235)   DRY( 11,236)   
    DRY( 11,237)   DRY( 11,238)   DRY( 11,239)   DRY( 11,240)   DRY( 11,241)   
    DRY( 11,242)   DRY( 11,243)   DRY( 11,244)   DRY( 11,245)   DRY( 11,246)   
    DRY( 11,247)   DRY( 11,248)   DRY( 11,249)   DRY( 11,250)   DRY( 11,251)   
    DRY( 11,252)   DRY( 11,253)   DRY( 11,254)   DRY( 11,255)   DRY( 11,256)   
    DRY( 11,257)   DRY( 11,258)   DRY( 11,259)   DRY( 11,260)   DRY( 11,261)   
    DRY( 11,262)   DRY( 11,263)   DRY( 11,264)   DRY( 11,265)   DRY( 11,266)   
    DRY( 11,267)   DRY( 11,268)   DRY( 11,269)   DRY( 11,270)   DRY( 11,271)   
    DRY( 11,272)   DRY( 11,273)   DRY( 11,274)   DRY( 11,275)   DRY( 11,276)   
    DRY( 11,277)   DRY( 11,278)   DRY( 11,279)   DRY( 11,280)   DRY( 11,281)   
    DRY( 11,282)   DRY( 11,284)   DRY( 11,288)   DRY( 11,298)   DRY( 12,  1)   
    DRY( 12,  2)   DRY( 12,  3)   DRY( 12,  4)   DRY( 12,  5)   DRY( 12,  6)   
    DRY( 12,  7)   DRY( 12,  8)   DRY( 12,  9)   DRY( 12, 10)   DRY( 12, 11)   
    DRY( 12, 12)   DRY( 12, 13)   DRY( 12, 14)   DRY( 12, 15)   DRY( 12, 25)   
    DRY( 12, 26)   DRY( 12, 27)   DRY( 12, 28)   DRY( 12, 29)   DRY( 12, 30)   
    DRY( 12, 31)   DRY( 12, 32)   DRY( 12, 33)   DRY( 12, 36)   DRY( 12, 37)   
    DRY( 12, 38)   DRY( 12, 39)   DRY( 12, 40)   DRY( 12, 41)   DRY( 12, 42)   
    DRY( 12, 43)   DRY( 12, 44)   DRY( 12, 45)   DRY( 12, 46)   DRY( 12, 47)   
    DRY( 12, 50)   DRY( 12, 51)   DRY( 12, 52)   DRY( 12, 53)   DRY( 12, 54)   
    DRY( 12, 55)   DRY( 12, 56)   DRY( 12, 57)   DRY( 12, 58)   DRY( 12, 59)   
    DRY( 12, 60)   DRY( 12, 61)   DRY( 12, 62)   DRY( 12, 63)   DRY( 12, 64)   
    DRY( 12, 65)   DRY( 12, 67)   DRY( 12, 93)   DRY( 12, 94)   DRY( 12, 95)   
    DRY( 12, 96)   DRY( 12, 97)   DRY( 12, 98)   DRY( 12, 99)   DRY( 12,100)   
    DRY( 12,101)   DRY( 12,102)   DRY( 12,103)   DRY( 12,104)   DRY( 12,105)   
    DRY( 12,106)   DRY( 12,109)   DRY( 12,110)   DRY( 12,111)   DRY( 12,112)   
    DRY( 12,113)   DRY( 12,114)   DRY( 12,115)   DRY( 12,116)   DRY( 12,117)   
    DRY( 12,118)   DRY( 12,163)   DRY( 12,164)   DRY( 12,165)   DRY( 12,166)   
    DRY( 12,167)   DRY( 12,168)   DRY( 12,169)   DRY( 12,170)   DRY( 12,185)   
    DRY( 12,186)   DRY( 12,187)   DRY( 12,188)   DRY( 12,189)   DRY( 12,190)   
    DRY( 12,191)   DRY( 12,192)   DRY( 12,193)   DRY( 12,194)   DRY( 12,195)   
    DRY( 12,196)   DRY( 12,197)   DRY( 12,201)   DRY( 12,214)   DRY( 12,215)   
    DRY( 12,216)   DRY( 12,217)   DRY( 12,218)   DRY( 12,219)   DRY( 12,220)   
    DRY( 12,221)   DRY( 12,222)   DRY( 12,223)   DRY( 12,224)   DRY( 12,225)   
    DRY( 12,226)   DRY( 12,227)   DRY( 12,228)   DRY( 12,229)   DRY( 12,230)   
    DRY( 12,231)   DRY( 12,232)   DRY( 12,233)   DRY( 12,234)   DRY( 12,235)   
    DRY( 12,236)   DRY( 12,237)   DRY( 12,238)   DRY( 12,239)   DRY( 12,240)   
    DRY( 12,241)   DRY( 12,242)   DRY( 12,243)   DRY( 12,244)   DRY( 12,245)   
    DRY( 12,246)   DRY( 12,247)   DRY( 12,248)   DRY( 12,249)   DRY( 12,250)   
    DRY( 12,251)   DRY( 12,252)   DRY( 12,253)   DRY( 12,254)   DRY( 12,255)   
    DRY( 12,256)   DRY( 12,257)   DRY( 12,258)   DRY( 12,259)   DRY( 12,260)   
    DRY( 12,261)   DRY( 12,262)   DRY( 12,263)   DRY( 12,264)   DRY( 12,265)   
    DRY( 12,266)   DRY( 12,267)   DRY( 12,268)   DRY( 12,269)   DRY( 12,270)   
    DRY( 12,271)   DRY( 12,272)   DRY( 12,273)   DRY( 12,274)   DRY( 12,275)   
    DRY( 12,276)   DRY( 12,277)   DRY( 12,278)   DRY( 12,279)   DRY( 12,280)   
    DRY( 12,281)   DRY( 12,282)   DRY( 12,283)   DRY( 12,284)   DRY( 12,285)   
    DRY( 13,  1)   DRY( 13,  2)   DRY( 13,  3)   DRY( 13,  4)   DRY( 13,  5)   
    DRY( 13,  6)   DRY( 13,  7)   DRY( 13,  8)   DRY( 13,  9)   DRY( 13, 10)   
    DRY( 13, 11)   DRY( 13, 12)   DRY( 13, 13)   DRY( 13, 14)   DRY( 13, 15)   
    DRY( 13, 17)   DRY( 13, 25)   DRY( 13, 26)   DRY( 13, 27)   DRY( 13, 28)   
    DRY( 13, 29)   DRY( 13, 30)   DRY( 13, 31)   DRY( 13, 37)   DRY( 13, 38)   
    DRY( 13, 39)   DRY( 13, 40)   DRY( 13, 41)   DRY( 13, 42)   DRY( 13, 43)   
    DRY( 13, 44)   DRY( 13, 45)   DRY( 13, 46)   DRY( 13, 47)   DRY( 13, 48)   
    DRY( 13, 52)   DRY( 13, 55)   DRY( 13, 56)   DRY( 13, 57)   DRY( 13, 58)   
    DRY( 13, 59)   DRY( 13, 60)   DRY( 13, 61)   DRY( 13, 62)   DRY( 13, 63)   
    DRY( 13, 64)   DRY( 13, 65)   DRY( 13, 66)   DRY( 13, 94)   DRY( 13, 95)   
    DRY( 13, 96)   DRY( 13, 97)   DRY( 13, 98)   DRY( 13, 99)   DRY( 13,100)   
    DRY( 13,101)   DRY( 13,102)   DRY( 13,103)   DRY( 13,104)   DRY( 13,105)   
    DRY( 13,106)   DRY( 13,107)   DRY( 13,108)   DRY( 13,109)   DRY( 13,112)   
    DRY( 13,113)   DRY( 13,114)   DRY( 13,115)   DRY( 13,116)   DRY( 13,117)   
    DRY( 13,118)   DRY( 13,163)   DRY( 13,164)   DRY( 13,165)   DRY( 13,166)   
    DRY( 13,167)   DRY( 13,168)   DRY( 13,169)   DRY( 13,170)   DRY( 13,171)   
    DRY( 13,172)   DRY( 13,173)   DRY( 13,184)   DRY( 13,185)   DRY( 13,186)   
    DRY( 13,187)   DRY( 13,188)   DRY( 13,189)   DRY( 13,190)   DRY( 13,191)   
    DRY( 13,192)   DRY( 13,193)   DRY( 13,194)   DRY( 13,195)   DRY( 13,196)   
    DRY( 13,201)   DRY( 13,214)   DRY( 13,215)   DRY( 13,216)   DRY( 13,217)   
    DRY( 13,218)   DRY( 13,219)   DRY( 13,220)   DRY( 13,221)   DRY( 13,222)   
    DRY( 13,223)   DRY( 13,224)   DRY( 13,225)   DRY( 13,226)   DRY( 13,227)   
    DRY( 13,228)   DRY( 13,229)   DRY( 13,230)   DRY( 13,231)   DRY( 13,232)   
    DRY( 13,233)   DRY( 13,234)   DRY( 13,235)   DRY( 13,236)   DRY( 13,237)   
    DRY( 13,238)   DRY( 13,239)   DRY( 13,240)   DRY( 13,241)   DRY( 13,242)   
    DRY( 13,243)   DRY( 13,244)   DRY( 13,245)   DRY( 13,246)   DRY( 13,247)   
    DRY( 13,248)   DRY( 13,249)   DRY( 13,250)   DRY( 13,251)   DRY( 13,252)   
    DRY( 13,253)   DRY( 13,254)   DRY( 13,255)   DRY( 13,256)   DRY( 13,257)   
    DRY( 13,258)   DRY( 13,259)   DRY( 13,260)   DRY( 13,261)   DRY( 13,262)   
    DRY( 13,263)   DRY( 13,264)   DRY( 13,265)   DRY( 13,266)   DRY( 13,267)   
    DRY( 13,268)   DRY( 13,269)   DRY( 13,270)   DRY( 13,271)   DRY( 13,272)   
    DRY( 13,273)   DRY( 13,274)   DRY( 13,275)   DRY( 13,276)   DRY( 13,277)   
    DRY( 13,278)   DRY( 13,279)   DRY( 13,280)   DRY( 13,281)   DRY( 13,282)   
    DRY( 13,283)   DRY( 13,284)   DRY( 13,285)   DRY( 13,286)   DRY( 13,287)   
    DRY( 14,  1)   DRY( 14,  2)   DRY( 14,  3)   DRY( 14,  4)   DRY( 14,  5)   
    DRY( 14,  6)   DRY( 14,  7)   DRY( 14,  8)   DRY( 14,  9)   DRY( 14, 10)   
    DRY( 14, 11)   DRY( 14, 12)   DRY( 14, 13)   DRY( 14, 14)   DRY( 14, 15)   
    DRY( 14, 16)   DRY( 14, 17)   DRY( 14, 25)   DRY( 14, 26)   DRY( 14, 27)   
    DRY( 14, 28)   DRY( 14, 29)   DRY( 14, 30)   DRY( 14, 31)   DRY( 14, 37)   
    DRY( 14, 38)   DRY( 14, 39)   DRY( 14, 40)   DRY( 14, 41)   DRY( 14, 42)   
    DRY( 14, 43)   DRY( 14, 44)   DRY( 14, 45)   DRY( 14, 46)   DRY( 14, 50)   
    DRY( 14, 56)   DRY( 14, 57)   DRY( 14, 58)   DRY( 14, 59)   DRY( 14, 60)   
    DRY( 14, 61)   DRY( 14, 62)   DRY( 14, 63)   DRY( 14, 64)   DRY( 14, 65)   
    DRY( 14, 66)   DRY( 14, 95)   DRY( 14, 96)   DRY( 14, 97)   DRY( 14, 98)   
    DRY( 14, 99)   DRY( 14,100)   DRY( 14,101)   DRY( 14,102)   DRY( 14,103)   
    DRY( 14,104)   DRY( 14,105)   DRY( 14,106)   DRY( 14,107)   DRY( 14,108)   
    DRY( 14,109)   DRY( 14,110)   DRY( 14,111)   DRY( 14,112)   DRY( 14,113)   
    DRY( 14,114)   DRY( 14,115)   DRY( 14,116)   DRY( 14,117)   DRY( 14,118)   
    DRY( 14,162)   DRY( 14,163)   DRY( 14,164)   DRY( 14,165)   DRY( 14,166)   
    DRY( 14,167)   DRY( 14,168)   DRY( 14,169)   DRY( 14,170)   DRY( 14,171)   
    DRY( 14,172)   DRY( 14,173)   DRY( 14,174)   DRY( 14,175)   DRY( 14,176)   
    DRY( 14,177)   DRY( 14,178)   DRY( 14,179)   DRY( 14,180)   DRY( 14,181)   
    DRY( 14,182)   DRY( 14,183)   DRY( 14,184)   DRY( 14,185)   DRY( 14,186)   
    DRY( 14,187)   DRY( 14,188)   DRY( 14,189)   DRY( 14,190)   DRY( 14,191)   
    DRY( 14,192)   DRY( 14,193)   DRY( 14,194)   DRY( 14,195)   DRY( 14,215)   
    DRY( 14,216)   DRY( 14,217)   DRY( 14,218)   DRY( 14,219)   DRY( 14,220)   
    DRY( 14,221)   DRY( 14,222)   DRY( 14,223)   DRY( 14,224)   DRY( 14,225)   
    DRY( 14,226)   DRY( 14,227)   DRY( 14,228)   DRY( 14,229)   DRY( 14,230)   
    DRY( 14,231)   DRY( 14,232)   DRY( 14,233)   DRY( 14,234)   DRY( 14,235)   
    DRY( 14,236)   DRY( 14,237)   DRY( 14,238)   DRY( 14,239)   DRY( 14,240)   
    DRY( 14,241)   DRY( 14,242)   DRY( 14,243)   DRY( 14,244)   DRY( 14,245)   
    DRY( 14,246)   DRY( 14,247)   DRY( 14,248)   DRY( 14,249)   DRY( 14,250)   
    DRY( 14,251)   DRY( 14,252)   DRY( 14,253)   DRY( 14,254)   DRY( 14,255)   
    DRY( 14,256)   DRY( 14,257)   DRY( 14,258)   DRY( 14,259)   DRY( 14,260)   
    DRY( 14,261)   DRY( 14,262)   DRY( 14,263)   DRY( 14,264)   DRY( 14,265)   
    DRY( 14,266)   DRY( 14,267)   DRY( 14,268)   DRY( 14,269)   DRY( 14,270)   
    DRY( 14,271)   DRY( 14,272)   DRY( 14,273)   DRY( 14,274)   DRY( 14,275)   
    DRY( 14,276)   DRY( 14,277)   DRY( 14,278)   DRY( 14,279)   DRY( 14,280)   
    DRY( 14,281)   DRY( 14,282)   DRY( 14,283)   DRY( 14,284)   DRY( 14,285)   
    DRY( 14,286)   DRY( 14,287)   DRY( 14,288)   DRY( 14,289)   DRY( 15,  1)   
    DRY( 15,  2)   DRY( 15,  3)   DRY( 15,  4)   DRY( 15,  5)   DRY( 15,  6)   
    DRY( 15,  7)   DRY( 15,  8)   DRY( 15,  9)   DRY( 15, 10)   DRY( 15, 11)   
    DRY( 15, 12)   DRY( 15, 13)   DRY( 15, 14)   DRY( 15, 15)   DRY( 15, 23)   
    DRY( 15, 24)   DRY( 15, 25)   DRY( 15, 26)   DRY( 15, 27)   DRY( 15, 28)   
    DRY( 15, 29)   DRY( 15, 37)   DRY( 15, 38)   DRY( 15, 39)   DRY( 15, 40)   
    DRY( 15, 41)   DRY( 15, 42)   DRY( 15, 43)   DRY( 15, 44)   DRY( 15, 45)   
    DRY( 15, 46)   DRY( 15, 50)   DRY( 15, 58)   DRY( 15, 59)   DRY( 15, 60)   
    DRY( 15, 61)   DRY( 15, 62)   DRY( 15, 63)   DRY( 15, 64)   DRY( 15, 65)   
    DRY( 15, 66)   DRY( 15, 67)   DRY( 15, 69)   DRY( 15, 94)   DRY( 15, 95)   
    DRY( 15, 96)   DRY( 15, 97)   DRY( 15, 98)   DRY( 15, 99)   DRY( 15,100)   
    DRY( 15,101)   DRY( 15,102)   DRY( 15,103)   DRY( 15,104)   DRY( 15,105)   
    DRY( 15,106)   DRY( 15,107)   DRY( 15,108)   DRY( 15,109)   DRY( 15,110)   
    DRY( 15,111)   DRY( 15,112)   DRY( 15,113)   DRY( 15,114)   DRY( 15,115)   
    DRY( 15,116)   DRY( 15,117)   DRY( 15,118)   DRY( 15,119)   DRY( 15,161)   
    DRY( 15,162)   DRY( 15,163)   DRY( 15,164)   DRY( 15,165)   DRY( 15,166)   
    DRY( 15,167)   DRY( 15,168)   DRY( 15,169)   DRY( 15,170)   DRY( 15,171)   
    DRY( 15,172)   DRY( 15,173)   DRY( 15,174)   DRY( 15,175)   DRY( 15,176)   
    DRY( 15,177)   DRY( 15,178)   DRY( 15,179)   DRY( 15,180)   DRY( 15,181)   
    DRY( 15,182)   DRY( 15,183)   DRY( 15,184)   DRY( 15,185)   DRY( 15,186)   
    DRY( 15,187)   DRY( 15,188)   DRY( 15,189)   DRY( 15,190)   DRY( 15,191)   
    DRY( 15,192)   DRY( 15,193)   DRY( 15,211)   DRY( 15,216)   DRY( 15,217)   
    DRY( 15,218)   DRY( 15,219)   DRY( 15,220)   DRY( 15,221)   DRY( 15,222)   
    DRY( 15,223)   DRY( 15,224)   DRY( 15,225)   DRY( 15,226)   DRY( 15,227)   
    DRY( 15,228)   DRY( 15,229)   DRY( 15,230)   DRY( 15,231)   DRY( 15,232)   
    DRY( 15,233)   DRY( 15,234)   DRY( 15,235)   DRY( 15,236)   DRY( 15,237)   
    DRY( 15,238)   DRY( 15,239)   DRY( 15,240)   DRY( 15,241)   DRY( 15,242)   
    DRY( 15,243)   DRY( 15,244)   DRY( 15,245)   DRY( 15,246)   DRY( 15,247)   
    DRY( 15,248)   DRY( 15,249)   DRY( 15,250)   DRY( 15,251)   DRY( 15,252)   
    DRY( 15,253)   DRY( 15,254)   DRY( 15,255)   DRY( 15,256)   DRY( 15,257)   
    DRY( 15,258)   DRY( 15,259)   DRY( 15,260)   DRY( 15,261)   DRY( 15,262)   
    DRY( 15,263)   DRY( 15,264)   DRY( 15,265)   DRY( 15,266)   DRY( 15,267)   
    DRY( 15,268)   DRY( 15,269)   DRY( 15,270)   DRY( 15,271)   DRY( 15,272)   
    DRY( 15,273)   DRY( 15,274)   DRY( 15,275)   DRY( 15,276)   DRY( 15,277)   
    DRY( 15,278)   DRY( 15,279)   DRY( 15,280)   DRY( 15,281)   DRY( 15,282)   
    DRY( 15,283)   DRY( 15,284)   DRY( 15,285)   DRY( 15,286)   DRY( 15,287)   
    DRY( 15,288)   DRY( 15,289)   DRY( 16,  1)   DRY( 16,  2)   DRY( 16,  3)   
    DRY( 16,  4)   DRY( 16,  5)   DRY( 16,  6)   DRY( 16,  7)   DRY( 16,  8)   
    DRY( 16,  9)   DRY( 16, 10)   DRY( 16, 11)   DRY( 16, 12)   DRY( 16, 13)   
    DRY( 16, 14)   DRY( 16, 23)   DRY( 16, 24)   DRY( 16, 25)   DRY( 16, 26)   
    DRY( 16, 28)   DRY( 16, 29)   DRY( 16, 36)   DRY( 16, 37)   DRY( 16, 38)   
    DRY( 16, 39)   DRY( 16, 41)   DRY( 16, 42)   DRY( 16, 43)   DRY( 16, 44)   
    DRY( 16, 45)   DRY( 16, 46)   DRY( 16, 50)   DRY( 16, 51)   DRY( 16, 58)   
    DRY( 16, 59)   DRY( 16, 60)   DRY( 16, 61)   DRY( 16, 62)   DRY( 16, 63)   
    DRY( 16, 64)   DRY( 16, 65)   DRY( 16, 66)   DRY( 16, 67)   DRY( 16, 69)   
    DRY( 16, 94)   DRY( 16, 95)   DRY( 16, 96)   DRY( 16, 97)   DRY( 16, 98)   
    DRY( 16, 99)   DRY( 16,100)   DRY( 16,101)   DRY( 16,102)   DRY( 16,103)   
    DRY( 16,104)   DRY( 16,105)   DRY( 16,106)   DRY( 16,107)   DRY( 16,108)   
    DRY( 16,109)   DRY( 16,110)   DRY( 16,111)   DRY( 16,112)   DRY( 16,113)   
    DRY( 16,114)   DRY( 16,115)   DRY( 16,116)   DRY( 16,117)   DRY( 16,118)   
    DRY( 16,119)   DRY( 16,120)   DRY( 16,161)   DRY( 16,162)   DRY( 16,163)   
    DRY( 16,164)   DRY( 16,165)   DRY( 16,166)   DRY( 16,167)   DRY( 16,168)   
    DRY( 16,169)   DRY( 16,170)   DRY( 16,171)   DRY( 16,172)   DRY( 16,173)   
    DRY( 16,174)   DRY( 16,175)   DRY( 16,176)   DRY( 16,177)   DRY( 16,178)   
    DRY( 16,179)   DRY( 16,180)   DRY( 16,181)   DRY( 16,182)   DRY( 16,183)   
    DRY( 16,184)   DRY( 16,185)   DRY( 16,186)   DRY( 16,187)   DRY( 16,188)   
    DRY( 16,189)   DRY( 16,190)   DRY( 16,191)   DRY( 16,192)   DRY( 16,212)   
    DRY( 16,216)   DRY( 16,217)   DRY( 16,218)   DRY( 16,219)   DRY( 16,220)   
    DRY( 16,221)   DRY( 16,222)   DRY( 16,223)   DRY( 16,224)   DRY( 16,225)   
    DRY( 16,226)   DRY( 16,227)   DRY( 16,228)   DRY( 16,229)   DRY( 16,230)   
    DRY( 16,231)   DRY( 16,232)   DRY( 16,233)   DRY( 16,234)   DRY( 16,235)   
    DRY( 16,236)   DRY( 16,237)   DRY( 16,238)   DRY( 16,239)   DRY( 16,240)   
    DRY( 16,241)   DRY( 16,242)   DRY( 16,243)   DRY( 16,244)   DRY( 16,245)   
    DRY( 16,246)   DRY( 16,247)   DRY( 16,248)   DRY( 16,249)   DRY( 16,250)   
    DRY( 16,251)   DRY( 16,252)   DRY( 16,253)   DRY( 16,254)   DRY( 16,255)   
    DRY( 16,256)   DRY( 16,257)   DRY( 16,258)   DRY( 16,259)   DRY( 16,260)   
    DRY( 16,261)   DRY( 16,262)   DRY( 16,263)   DRY( 16,264)   DRY( 16,265)   
    DRY( 16,266)   DRY( 16,267)   DRY( 16,268)   DRY( 16,269)   DRY( 16,270)   
    DRY( 16,271)   DRY( 16,272)   DRY( 16,273)   DRY( 16,274)   DRY( 16,275)   
    DRY( 16,276)   DRY( 16,277)   DRY( 16,278)   DRY( 16,279)   DRY( 16,280)   
    DRY( 16,281)   DRY( 16,282)   DRY( 16,283)   DRY( 16,284)   DRY( 16,285)   
    DRY( 16,286)   DRY( 16,287)   DRY( 16,288)   DRY( 16,289)   DRY( 16,290)   
    DRY( 16,298)   DRY( 17,  1)   DRY( 17,  2)   DRY( 17,  3)   DRY( 17,  4)   
    DRY( 17,  5)   DRY( 17,  6)   DRY( 17,  7)   DRY( 17,  8)   DRY( 17,  9)   
    DRY( 17, 10)   DRY( 17, 11)   DRY( 17, 12)   DRY( 17, 13)   DRY( 17, 22)   
    DRY( 17, 23)   DRY( 17, 24)   DRY( 17, 25)   DRY( 17, 26)   DRY( 17, 27)   
    DRY( 17, 29)   DRY( 17, 30)   DRY( 17, 35)   DRY( 17, 36)   DRY( 17, 37)   
    DRY( 17, 38)   DRY( 17, 39)   DRY( 17, 40)   DRY( 17, 41)   DRY( 17, 42)   
    DRY( 17, 43)   DRY( 17, 44)   DRY( 17, 45)   DRY( 17, 46)   DRY( 17, 47)   
    DRY( 17, 48)   DRY( 17, 49)   DRY( 17, 50)   DRY( 17, 52)   DRY( 17, 58)   
    DRY( 17, 59)   DRY( 17, 60)   DRY( 17, 61)   DRY( 17, 62)   DRY( 17, 63)   
    DRY( 17, 64)   DRY( 17, 65)   DRY( 17, 66)   DRY( 17, 67)   DRY( 17, 95)   
    DRY( 17, 96)   DRY( 17, 97)   DRY( 17, 98)   DRY( 17, 99)   DRY( 17,100)   
    DRY( 17,101)   DRY( 17,102)   DRY( 17,103)   DRY( 17,104)   DRY( 17,105)   
    DRY( 17,106)   DRY( 17,107)   DRY( 17,108)   DRY( 17,109)   DRY( 17,110)   
    DRY( 17,111)   DRY( 17,112)   DRY( 17,113)   DRY( 17,114)   DRY( 17,115)   
    DRY( 17,116)   DRY( 17,117)   DRY( 17,118)   DRY( 17,119)   DRY( 17,120)   
    DRY( 17,160)   DRY( 17,161)   DRY( 17,162)   DRY( 17,163)   DRY( 17,164)   
    DRY( 17,165)   DRY( 17,166)   DRY( 17,167)   DRY( 17,168)   DRY( 17,169)   
    DRY( 17,170)   DRY( 17,171)   DRY( 17,172)   DRY( 17,173)   DRY( 17,174)   
    DRY( 17,175)   DRY( 17,176)   DRY( 17,177)   DRY( 17,178)   DRY( 17,179)   
    DRY( 17,180)   DRY( 17,181)   DRY( 17,182)   DRY( 17,183)   DRY( 17,184)   
    DRY( 17,185)   DRY( 17,186)   DRY( 17,187)   DRY( 17,188)   DRY( 17,189)   
    DRY( 17,190)   DRY( 17,191)   DRY( 17,192)   DRY( 17,217)   DRY( 17,218)   
    DRY( 17,219)   DRY( 17,221)   DRY( 17,222)   DRY( 17,223)   DRY( 17,224)   
    DRY( 17,225)   DRY( 17,226)   DRY( 17,227)   DRY( 17,228)   DRY( 17,229)   
    DRY( 17,230)   DRY( 17,231)   DRY( 17,232)   DRY( 17,233)   DRY( 17,234)   
    DRY( 17,235)   DRY( 17,236)   DRY( 17,237)   DRY( 17,238)   DRY( 17,239)   
    DRY( 17,240)   DRY( 17,241)   DRY( 17,242)   DRY( 17,243)   DRY( 17,244)   
    DRY( 17,245)   DRY( 17,246)   DRY( 17,247)   DRY( 17,248)   DRY( 17,249)   
    DRY( 17,250)   DRY( 17,251)   DRY( 17,252)   DRY( 17,253)   DRY( 17,254)   
    DRY( 17,255)   DRY( 17,256)   DRY( 17,257)   DRY( 17,258)   DRY( 17,259)   
    DRY( 17,260)   DRY( 17,261)   DRY( 17,262)   DRY( 17,263)   DRY( 17,264)   
    DRY( 17,265)   DRY( 17,266)   DRY( 17,267)   DRY( 17,268)   DRY( 17,269)   
    DRY( 17,270)   DRY( 17,271)   DRY( 17,272)   DRY( 17,273)   DRY( 17,274)   
    DRY( 17,275)   DRY( 17,276)   DRY( 17,277)   DRY( 17,278)   DRY( 17,279)   
    DRY( 17,280)   DRY( 17,281)   DRY( 17,282)   DRY( 17,283)   DRY( 17,284)   
    DRY( 17,285)   DRY( 17,286)   DRY( 17,287)   DRY( 17,288)   DRY( 17,289)   
    DRY( 17,290)   DRY( 17,292)   DRY( 17,298)   DRY( 17,299)   DRY( 17,300)   
    DRY( 17,301)   DRY( 17,303)   DRY( 18,  2)   DRY( 18,  3)   DRY( 18,  4)   
    DRY( 18,  5)   DRY( 18,  6)   DRY( 18,  7)   DRY( 18,  8)   DRY( 18,  9)   
    DRY( 18, 10)   DRY( 18, 11)   DRY( 18, 12)   DRY( 18, 13)   DRY( 18, 22)   
    DRY( 18, 23)   DRY( 18, 24)   DRY( 18, 28)   DRY( 18, 31)   DRY( 18, 35)   
    DRY( 18, 36)   DRY( 18, 37)   DRY( 18, 38)   DRY( 18, 39)   DRY( 18, 40)   
    DRY( 18, 41)   DRY( 18, 42)   DRY( 18, 43)   DRY( 18, 44)   DRY( 18, 45)   
    DRY( 18, 46)   DRY( 18, 47)   DRY( 18, 48)   DRY( 18, 49)   DRY( 18, 50)   
    DRY( 18, 51)   DRY( 18, 52)   DRY( 18, 58)   DRY( 18, 59)   DRY( 18, 60)   
    DRY( 18, 61)   DRY( 18, 62)   DRY( 18, 63)   DRY( 18, 64)   DRY( 18, 65)   
    DRY( 18, 66)   DRY( 18, 67)   DRY( 18, 95)   DRY( 18, 96)   DRY( 18, 97)   
    DRY( 18, 98)   DRY( 18, 99)   DRY( 18,100)   DRY( 18,101)   DRY( 18,102)   
    DRY( 18,103)   DRY( 18,104)   DRY( 18,105)   DRY( 18,106)   DRY( 18,107)   
    DRY( 18,108)   DRY( 18,109)   DRY( 18,110)   DRY( 18,111)   DRY( 18,112)   
    DRY( 18,113)   DRY( 18,114)   DRY( 18,115)   DRY( 18,116)   DRY( 18,117)   
    DRY( 18,118)   DRY( 18,119)   DRY( 18,120)   DRY( 18,121)   DRY( 18,157)   
    DRY( 18,158)   DRY( 18,159)   DRY( 18,160)   DRY( 18,161)   DRY( 18,162)   
    DRY( 18,163)   DRY( 18,164)   DRY( 18,165)   DRY( 18,166)   DRY( 18,167)   
    DRY( 18,168)   DRY( 18,169)   DRY( 18,170)   DRY( 18,171)   DRY( 18,172)   
    DRY( 18,173)   DRY( 18,174)   DRY( 18,175)   DRY( 18,176)   DRY( 18,177)   
    DRY( 18,178)   DRY( 18,179)   DRY( 18,180)   DRY( 18,181)   DRY( 18,182)   
    DRY( 18,183)   DRY( 18,184)   DRY( 18,185)   DRY( 18,186)   DRY( 18,187)   
    DRY( 18,188)   DRY( 18,189)   DRY( 18,190)   DRY( 18,213)   DRY( 18,214)   
    DRY( 18,218)   DRY( 18,219)   DRY( 18,222)   DRY( 18,223)   DRY( 18,225)   
    DRY( 18,226)   DRY( 18,227)   DRY( 18,228)   DRY( 18,229)   DRY( 18,230)   
    DRY( 18,231)   DRY( 18,232)   DRY( 18,233)   DRY( 18,234)   DRY( 18,235)   
    DRY( 18,236)   DRY( 18,237)   DRY( 18,238)   DRY( 18,239)   DRY( 18,240)   
    DRY( 18,241)   DRY( 18,242)   DRY( 18,243)   DRY( 18,244)   DRY( 18,245)   
    DRY( 18,246)   DRY( 18,247)   DRY( 18,248)   DRY( 18,249)   DRY( 18,250)   
    DRY( 18,251)   DRY( 18,252)   DRY( 18,253)   DRY( 18,254)   DRY( 18,255)   
    DRY( 18,256)   DRY( 18,257)   DRY( 18,258)   DRY( 18,259)   DRY( 18,260)   
    DRY( 18,261)   DRY( 18,262)   DRY( 18,263)   DRY( 18,264)   DRY( 18,265)   
    DRY( 18,266)   DRY( 18,267)   DRY( 18,268)   DRY( 18,269)   DRY( 18,270)   
    DRY( 18,271)   DRY( 18,272)   DRY( 18,273)   DRY( 18,274)   DRY( 18,275)   
    DRY( 18,276)   DRY( 18,277)   DRY( 18,280)   DRY( 18,281)   DRY( 18,282)   
    DRY( 18,283)   DRY( 18,284)   DRY( 18,285)   DRY( 18,286)   DRY( 18,287)   
    DRY( 18,288)   DRY( 18,289)   DRY( 18,290)   DRY( 18,291)   DRY( 18,292)   
    DRY( 18,293)   DRY( 18,298)   DRY( 18,299)   DRY( 18,300)   DRY( 18,301)   
    DRY( 18,302)   DRY( 18,303)   DRY( 18,304)   DRY( 18,305)   DRY( 19,  2)   
    DRY( 19,  3)   DRY( 19,  4)   DRY( 19,  5)   DRY( 19,  6)   DRY( 19,  7)   
    DRY( 19,  8)   DRY( 19,  9)   DRY( 19, 10)   DRY( 19, 11)   DRY( 19, 12)   
    DRY( 19, 13)   DRY( 19, 23)   DRY( 19, 24)   DRY( 19, 29)   DRY( 19, 30)   
    DRY( 19, 31)   DRY( 19, 32)   DRY( 19, 33)   DRY( 19, 34)   DRY( 19, 35)   
    DRY( 19, 36)   DRY( 19, 37)   DRY( 19, 38)   DRY( 19, 39)   DRY( 19, 40)   
    DRY( 19, 41)   DRY( 19, 42)   DRY( 19, 43)   DRY( 19, 44)   DRY( 19, 45)   
    DRY( 19, 46)   DRY( 19, 47)   DRY( 19, 48)   DRY( 19, 49)   DRY( 19, 50)   
    DRY( 19, 51)   DRY( 19, 52)   DRY( 19, 53)   DRY( 19, 59)   DRY( 19, 60)   
    DRY( 19, 61)   DRY( 19, 62)   DRY( 19, 63)   DRY( 19, 64)   DRY( 19, 65)   
    DRY( 19, 66)   DRY( 19, 67)   DRY( 19, 94)   DRY( 19, 95)   DRY( 19, 96)   
    DRY( 19, 97)   DRY( 19, 98)   DRY( 19, 99)   DRY( 19,100)   DRY( 19,101)   
    DRY( 19,102)   DRY( 19,103)   DRY( 19,104)   DRY( 19,105)   DRY( 19,106)   
    DRY( 19,107)   DRY( 19,108)   DRY( 19,109)   DRY( 19,110)   DRY( 19,111)   
    DRY( 19,112)   DRY( 19,113)   DRY( 19,114)   DRY( 19,115)   DRY( 19,116)   
    DRY( 19,117)   DRY( 19,118)   DRY( 19,119)   DRY( 19,120)   DRY( 19,121)   
    DRY( 19,152)   DRY( 19,153)   DRY( 19,154)   DRY( 19,155)   DRY( 19,156)   
    DRY( 19,157)   DRY( 19,158)   DRY( 19,159)   DRY( 19,160)   DRY( 19,161)   
    DRY( 19,162)   DRY( 19,163)   DRY( 19,164)   DRY( 19,165)   DRY( 19,166)   
    DRY( 19,167)   DRY( 19,168)   DRY( 19,169)   DRY( 19,170)   DRY( 19,171)   
    DRY( 19,172)   DRY( 19,173)   DRY( 19,174)   DRY( 19,175)   DRY( 19,176)   
    DRY( 19,177)   DRY( 19,178)   DRY( 19,179)   DRY( 19,180)   DRY( 19,181)   
    DRY( 19,182)   DRY( 19,183)   DRY( 19,184)   DRY( 19,185)   DRY( 19,186)   
    DRY( 19,187)   DRY( 19,188)   DRY( 19,189)   DRY( 19,190)   DRY( 19,214)   
    DRY( 19,219)   DRY( 19,226)   DRY( 19,227)   DRY( 19,228)   DRY( 19,229)   
    DRY( 19,230)   DRY( 19,231)   DRY( 19,232)   DRY( 19,233)   DRY( 19,234)   
    DRY( 19,235)   DRY( 19,236)   DRY( 19,237)   DRY( 19,238)   DRY( 19,239)   
    DRY( 19,240)   DRY( 19,241)   DRY( 19,242)   DRY( 19,243)   DRY( 19,244)   
    DRY( 19,245)   DRY( 19,246)   DRY( 19,247)   DRY( 19,248)   DRY( 19,249)   
    DRY( 19,250)   DRY( 19,251)   DRY( 19,252)   DRY( 19,253)   DRY( 19,254)   
    DRY( 19,255)   DRY( 19,256)   DRY( 19,257)   DRY( 19,258)   DRY( 19,259)   
    DRY( 19,260)   DRY( 19,261)   DRY( 19,262)   DRY( 19,263)   DRY( 19,264)   
    DRY( 19,265)   DRY( 19,266)   DRY( 19,267)   DRY( 19,268)   DRY( 19,269)   
    DRY( 19,270)   DRY( 19,271)   DRY( 19,272)   DRY( 19,273)   DRY( 19,274)   
    DRY( 19,275)   DRY( 19,277)   DRY( 19,278)   DRY( 19,279)   DRY( 19,280)   
    DRY( 19,281)   DRY( 19,282)   DRY( 19,283)   DRY( 19,284)   DRY( 19,285)   
    DRY( 19,286)   DRY( 19,287)   DRY( 19,288)   DRY( 19,289)   DRY( 19,293)   
    DRY( 19,298)   DRY( 19,299)   DRY( 19,300)   DRY( 19,301)   DRY( 19,302)   
    DRY( 19,303)   DRY( 19,304)   DRY( 19,305)   DRY( 19,306)   DRY( 19,307)   
    DRY( 19,308)   DRY( 19,309)   DRY( 19,310)   DRY( 20,  3)   DRY( 20,  4)   
    DRY( 20,  5)   DRY( 20,  6)   DRY( 20,  7)   DRY( 20,  8)   DRY( 20,  9)   
    DRY( 20, 10)   DRY( 20, 11)   DRY( 20, 12)   DRY( 20, 13)   DRY( 20, 22)   
    DRY( 20, 23)   DRY( 20, 24)   DRY( 20, 26)   DRY( 20, 30)   DRY( 20, 31)   
    DRY( 20, 32)   DRY( 20, 33)   DRY( 20, 34)   DRY( 20, 35)   DRY( 20, 36)   
    DRY( 20, 37)   DRY( 20, 38)   DRY( 20, 39)   DRY( 20, 40)   DRY( 20, 41)   
    DRY( 20, 42)   DRY( 20, 43)   DRY( 20, 44)   DRY( 20, 45)   DRY( 20, 46)   
    DRY( 20, 47)   DRY( 20, 48)   DRY( 20, 49)   DRY( 20, 50)   DRY( 20, 51)   
    DRY( 20, 52)   DRY( 20, 53)   DRY( 20, 54)   DRY( 20, 58)   DRY( 20, 59)   
    DRY( 20, 60)   DRY( 20, 61)   DRY( 20, 62)   DRY( 20, 63)   DRY( 20, 64)   
    DRY( 20, 65)   DRY( 20, 66)   DRY( 20, 67)   DRY( 20, 94)   DRY( 20, 95)   
    DRY( 20, 96)   DRY( 20, 97)   DRY( 20, 98)   DRY( 20, 99)   DRY( 20,100)   
    DRY( 20,101)   DRY( 20,102)   DRY( 20,103)   DRY( 20,104)   DRY( 20,105)   
    DRY( 20,106)   DRY( 20,107)   DRY( 20,108)   DRY( 20,109)   DRY( 20,110)   
    DRY( 20,111)   DRY( 20,112)   DRY( 20,113)   DRY( 20,114)   DRY( 20,115)   
    DRY( 20,116)   DRY( 20,117)   DRY( 20,118)   DRY( 20,119)   DRY( 20,121)   
    DRY( 20,122)   DRY( 20,123)   DRY( 20,150)   DRY( 20,151)   DRY( 20,152)   
    DRY( 20,153)   DRY( 20,154)   DRY( 20,155)   DRY( 20,156)   DRY( 20,157)   
    DRY( 20,158)   DRY( 20,159)   DRY( 20,160)   DRY( 20,161)   DRY( 20,162)   
    DRY( 20,163)   DRY( 20,164)   DRY( 20,165)   DRY( 20,166)   DRY( 20,167)   
    DRY( 20,168)   DRY( 20,169)   DRY( 20,170)   DRY( 20,171)   DRY( 20,172)   
    DRY( 20,173)   DRY( 20,174)   DRY( 20,175)   DRY( 20,176)   DRY( 20,177)   
    DRY( 20,178)   DRY( 20,179)   DRY( 20,180)   DRY( 20,181)   DRY( 20,182)   
    DRY( 20,183)   DRY( 20,184)   DRY( 20,185)   DRY( 20,186)   DRY( 20,187)   
    DRY( 20,188)   DRY( 20,189)   DRY( 20,190)   DRY( 20,191)   DRY( 20,228)   
    DRY( 20,230)   DRY( 20,231)   DRY( 20,232)   DRY( 20,233)   DRY( 20,234)   
    DRY( 20,235)   DRY( 20,236)   DRY( 20,237)   DRY( 20,238)   DRY( 20,239)   
    DRY( 20,240)   DRY( 20,241)   DRY( 20,242)   DRY( 20,243)   DRY( 20,244)   
    DRY( 20,245)   DRY( 20,246)   DRY( 20,247)   DRY( 20,248)   DRY( 20,249)   
    DRY( 20,250)   DRY( 20,251)   DRY( 20,252)   DRY( 20,253)   DRY( 20,254)   
    DRY( 20,255)   DRY( 20,256)   DRY( 20,257)   DRY( 20,258)   DRY( 20,259)   
    DRY( 20,260)   DRY( 20,261)   DRY( 20,262)   DRY( 20,263)   DRY( 20,264)   
    DRY( 20,265)   DRY( 20,266)   DRY( 20,267)   DRY( 20,268)   DRY( 20,269)   
    DRY( 20,270)   DRY( 20,271)   DRY( 20,272)   DRY( 20,273)   DRY( 20,274)   
    DRY( 20,277)   DRY( 20,278)   DRY( 20,279)   DRY( 20,280)   DRY( 20,281)   
    DRY( 20,282)   DRY( 20,283)   DRY( 20,284)   DRY( 20,285)   DRY( 20,286)   
    DRY( 20,287)   DRY( 20,288)   DRY( 20,289)   DRY( 20,298)   DRY( 20,299)   
    DRY( 20,300)   DRY( 20,301)   DRY( 20,302)   DRY( 20,303)   DRY( 20,304)   
    DRY( 20,305)   DRY( 20,306)   DRY( 20,307)   DRY( 20,308)   DRY( 20,309)   
    DRY( 20,310)   DRY( 20,311)   DRY( 21,  3)   DRY( 21,  4)   DRY( 21,  5)   
    DRY( 21,  6)   DRY( 21,  7)   DRY( 21,  8)   DRY( 21,  9)   DRY( 21, 10)   
    DRY( 21, 11)   DRY( 21, 12)   DRY( 21, 13)   DRY( 21, 14)   DRY( 21, 22)   
    DRY( 21, 24)   DRY( 21, 29)   DRY( 21, 30)   DRY( 21, 31)   DRY( 21, 32)   
    DRY( 21, 33)   DRY( 21, 34)   DRY( 21, 35)   DRY( 21, 36)   DRY( 21, 37)   
    DRY( 21, 38)   DRY( 21, 39)   DRY( 21, 40)   DRY( 21, 41)   DRY( 21, 42)   
    DRY( 21, 43)   DRY( 21, 44)   DRY( 21, 45)   DRY( 21, 46)   DRY( 21, 47)   
    DRY( 21, 48)   DRY( 21, 49)   DRY( 21, 50)   DRY( 21, 51)   DRY( 21, 52)   
    DRY( 21, 53)   DRY( 21, 54)   DRY( 21, 55)   DRY( 21, 60)   DRY( 21, 61)   
    DRY( 21, 62)   DRY( 21, 63)   DRY( 21, 64)   DRY( 21, 65)   DRY( 21, 66)   
    DRY( 21, 67)   DRY( 21, 68)   DRY( 21, 69)   DRY( 21, 96)   DRY( 21, 97)   
    DRY( 21, 98)   DRY( 21, 99)   DRY( 21,100)   DRY( 21,101)   DRY( 21,102)   
    DRY( 21,103)   DRY( 21,104)   DRY( 21,105)   DRY( 21,106)   DRY( 21,107)   
    DRY( 21,108)   DRY( 21,109)   DRY( 21,110)   DRY( 21,111)   DRY( 21,112)   
    DRY( 21,113)   DRY( 21,114)   DRY( 21,115)   DRY( 21,116)   DRY( 21,117)   
    DRY( 21,118)   DRY( 21,119)   DRY( 21,120)   DRY( 21,121)   DRY( 21,122)   
    DRY( 21,123)   DRY( 21,124)   DRY( 21,125)   DRY( 21,126)   DRY( 21,147)   
    DRY( 21,148)   DRY( 21,149)   DRY( 21,150)   DRY( 21,151)   DRY( 21,152)   
    DRY( 21,153)   DRY( 21,154)   DRY( 21,155)   DRY( 21,156)   DRY( 21,157)   
    DRY( 21,158)   DRY( 21,159)   DRY( 21,160)   DRY( 21,161)   DRY( 21,162)   
    DRY( 21,163)   DRY( 21,164)   DRY( 21,165)   DRY( 21,166)   DRY( 21,167)   
    DRY( 21,168)   DRY( 21,169)   DRY( 21,170)   DRY( 21,171)   DRY( 21,172)   
    DRY( 21,173)   DRY( 21,174)   DRY( 21,175)   DRY( 21,176)   DRY( 21,177)   
    DRY( 21,178)   DRY( 21,179)   DRY( 21,180)   DRY( 21,181)   DRY( 21,182)   
    DRY( 21,183)   DRY( 21,184)   DRY( 21,185)   DRY( 21,186)   DRY( 21,187)   
    DRY( 21,188)   DRY( 21,189)   DRY( 21,190)   DRY( 21,191)   DRY( 21,192)   
    DRY( 21,208)   DRY( 21,210)   DRY( 21,233)   DRY( 21,234)   DRY( 21,235)   
    DRY( 21,236)   DRY( 21,237)   DRY( 21,238)   DRY( 21,239)   DRY( 21,240)   
    DRY( 21,241)   DRY( 21,242)   DRY( 21,243)   DRY( 21,244)   DRY( 21,245)   
    DRY( 21,246)   DRY( 21,247)   DRY( 21,248)   DRY( 21,249)   DRY( 21,250)   
    DRY( 21,251)   DRY( 21,252)   DRY( 21,253)   DRY( 21,254)   DRY( 21,255)   
    DRY( 21,256)   DRY( 21,257)   DRY( 21,258)   DRY( 21,259)   DRY( 21,260)   
    DRY( 21,261)   DRY( 21,262)   DRY( 21,263)   DRY( 21,264)   DRY( 21,265)   
    DRY( 21,266)   DRY( 21,267)   DRY( 21,268)   DRY( 21,269)   DRY( 21,270)   
    DRY( 21,271)   DRY( 21,272)   DRY( 21,273)   DRY( 21,274)   DRY( 21,277)   
    DRY( 21,278)   DRY( 21,279)   DRY( 21,280)   DRY( 21,297)   DRY( 21,298)   
    DRY( 21,299)   DRY( 21,300)   DRY( 21,301)   DRY( 21,302)   DRY( 21,303)   
    DRY( 21,304)   DRY( 21,305)   DRY( 21,306)   DRY( 21,307)   DRY( 21,308)   
    DRY( 21,309)   DRY( 21,310)   DRY( 21,311)   DRY( 21,312)   DRY( 22,  4)   
    DRY( 22,  6)   DRY( 22,  7)   DRY( 22,  8)   DRY( 22,  9)   DRY( 22, 10)   
    DRY( 22, 11)   DRY( 22, 12)   DRY( 22, 13)   DRY( 22, 14)   DRY( 22, 15)   
    DRY( 22, 17)   DRY( 22, 19)   DRY( 22, 20)   DRY( 22, 21)   DRY( 22, 22)   
    DRY( 22, 23)   DRY( 22, 26)   DRY( 22, 27)   DRY( 22, 28)   DRY( 22, 30)   
    DRY( 22, 31)   DRY( 22, 32)   DRY( 22, 33)   DRY( 22, 34)   DRY( 22, 35)   
    DRY( 22, 36)   DRY( 22, 37)   DRY( 22, 38)   DRY( 22, 39)   DRY( 22, 40)   
    DRY( 22, 41)   DRY( 22, 42)   DRY( 22, 43)   DRY( 22, 44)   DRY( 22, 45)   
    DRY( 22, 46)   DRY( 22, 47)   DRY( 22, 48)   DRY( 22, 49)   DRY( 22, 50)   
    DRY( 22, 51)   DRY( 22, 52)   DRY( 22, 53)   DRY( 22, 54)   DRY( 22, 55)   
    DRY( 22, 61)   DRY( 22, 62)   DRY( 22, 63)   DRY( 22, 64)   DRY( 22, 65)   
    DRY( 22, 66)   DRY( 22, 67)   DRY( 22, 68)   DRY( 22, 69)   DRY( 22, 70)   
    DRY( 22, 94)   DRY( 22, 95)   DRY( 22, 96)   DRY( 22, 97)   DRY( 22, 98)   
    DRY( 22, 99)   DRY( 22,100)   DRY( 22,101)   DRY( 22,102)   DRY( 22,103)   
    DRY( 22,104)   DRY( 22,105)   DRY( 22,106)   DRY( 22,107)   DRY( 22,108)   
    DRY( 22,109)   DRY( 22,110)   DRY( 22,111)   DRY( 22,112)   DRY( 22,113)   
    DRY( 22,114)   DRY( 22,115)   DRY( 22,116)   DRY( 22,117)   DRY( 22,118)   
    DRY( 22,119)   DRY( 22,120)   DRY( 22,121)   DRY( 22,122)   DRY( 22,123)   
    DRY( 22,124)   DRY( 22,125)   DRY( 22,126)   DRY( 22,127)   DRY( 22,128)   
    DRY( 22,129)   DRY( 22,130)   DRY( 22,131)   DRY( 22,132)   DRY( 22,133)   
    DRY( 22,143)   DRY( 22,144)   DRY( 22,145)   DRY( 22,146)   DRY( 22,147)   
    DRY( 22,148)   DRY( 22,149)   DRY( 22,150)   DRY( 22,151)   DRY( 22,152)   
    DRY( 22,153)   DRY( 22,154)   DRY( 22,155)   DRY( 22,156)   DRY( 22,157)   
    DRY( 22,158)   DRY( 22,159)   DRY( 22,160)   DRY( 22,161)   DRY( 22,162)   
    DRY( 22,163)   DRY( 22,164)   DRY( 22,165)   DRY( 22,166)   DRY( 22,167)   
    DRY( 22,168)   DRY( 22,169)   DRY( 22,170)   DRY( 22,171)   DRY( 22,172)   
    DRY( 22,173)   DRY( 22,174)   DRY( 22,175)   DRY( 22,176)   DRY( 22,177)   
    DRY( 22,178)   DRY( 22,179)   DRY( 22,180)   DRY( 22,181)   DRY( 22,182)   
    DRY( 22,183)   DRY( 22,184)   DRY( 22,185)   DRY( 22,186)   DRY( 22,187)   
    DRY( 22,188)   DRY( 22,189)   DRY( 22,190)   DRY( 22,191)   DRY( 22,192)   
    DRY( 22,193)   DRY( 22,194)   DRY( 22,209)   DRY( 22,210)   DRY( 22,211)   
    DRY( 22,232)   DRY( 22,237)   DRY( 22,238)   DRY( 22,239)   DRY( 22,240)   
    DRY( 22,241)   DRY( 22,242)   DRY( 22,243)   DRY( 22,244)   DRY( 22,245)   
    DRY( 22,246)   DRY( 22,247)   DRY( 22,248)   DRY( 22,249)   DRY( 22,250)   
    DRY( 22,251)   DRY( 22,252)   DRY( 22,253)   DRY( 22,254)   DRY( 22,255)   
    DRY( 22,256)   DRY( 22,257)   DRY( 22,258)   DRY( 22,259)   DRY( 22,260)   
    DRY( 22,261)   DRY( 22,262)   DRY( 22,263)   DRY( 22,264)   DRY( 22,265)   
    DRY( 22,266)   DRY( 22,267)   DRY( 22,268)   DRY( 22,269)   DRY( 22,270)   
    DRY( 22,271)   DRY( 22,272)   DRY( 22,273)   DRY( 22,274)   DRY( 22,277)   
    DRY( 22,278)   DRY( 22,279)   DRY( 22,297)   DRY( 22,298)   DRY( 22,299)   
    DRY( 22,300)   DRY( 22,301)   DRY( 22,302)   DRY( 22,304)   DRY( 22,307)   
    DRY( 22,308)   DRY( 22,309)   DRY( 23,  7)   DRY( 23,  8)   DRY( 23, 10)   
    DRY( 23, 11)   DRY( 23, 13)   DRY( 23, 14)   DRY( 23, 19)   DRY( 23, 21)   
    DRY( 23, 22)   DRY( 23, 24)   DRY( 23, 25)   DRY( 23, 26)   DRY( 23, 27)   
    DRY( 23, 28)   DRY( 23, 29)   DRY( 23, 30)   DRY( 23, 31)   DRY( 23, 32)   
    DRY( 23, 33)   DRY( 23, 34)   DRY( 23, 35)   DRY( 23, 36)   DRY( 23, 37)   
    DRY( 23, 38)   DRY( 23, 39)   DRY( 23, 40)   DRY( 23, 41)   DRY( 23, 42)   
    DRY( 23, 43)   DRY( 23, 44)   DRY( 23, 45)   DRY( 23, 46)   DRY( 23, 47)   
    DRY( 23, 48)   DRY( 23, 49)   DRY( 23, 50)   DRY( 23, 51)   DRY( 23, 52)   
    DRY( 23, 53)   DRY( 23, 54)   DRY( 23, 55)   DRY( 23, 56)   DRY( 23, 61)   
    DRY( 23, 62)   DRY( 23, 63)   DRY( 23, 64)   DRY( 23, 65)   DRY( 23, 66)   
    DRY( 23, 67)   DRY( 23, 68)   DRY( 23, 69)   DRY( 23, 70)   DRY( 23, 71)   
    DRY( 23, 72)   DRY( 23, 94)   DRY( 23, 95)   DRY( 23, 96)   DRY( 23, 97)   
    DRY( 23, 98)   DRY( 23, 99)   DRY( 23,100)   DRY( 23,101)   DRY( 23,102)   
    DRY( 23,103)   DRY( 23,104)   DRY( 23,105)   DRY( 23,106)   DRY( 23,107)   
    DRY( 23,108)   DRY( 23,109)   DRY( 23,110)   DRY( 23,111)   DRY( 23,112)   
    DRY( 23,113)   DRY( 23,114)   DRY( 23,115)   DRY( 23,116)   DRY( 23,117)   
    DRY( 23,118)   DRY( 23,119)   DRY( 23,120)   DRY( 23,121)   DRY( 23,122)   
    DRY( 23,123)   DRY( 23,124)   DRY( 23,125)   DRY( 23,126)   DRY( 23,127)   
    DRY( 23,128)   DRY( 23,129)   DRY( 23,130)   DRY( 23,131)   DRY( 23,132)   
    DRY( 23,133)   DRY( 23,134)   DRY( 23,135)   DRY( 23,136)   DRY( 23,139)   
    DRY( 23,140)   DRY( 23,141)   DRY( 23,142)   DRY( 23,143)   DRY( 23,144)   
    DRY( 23,145)   DRY( 23,146)   DRY( 23,147)   DRY( 23,148)   DRY( 23,149)   
    DRY( 23,150)   DRY( 23,151)   DRY( 23,152)   DRY( 23,153)   DRY( 23,154)   
    DRY( 23,155)   DRY( 23,156)   DRY( 23,157)   DRY( 23,158)   DRY( 23,159)   
    DRY( 23,160)   DRY( 23,161)   DRY( 23,162)   DRY( 23,163)   DRY( 23,164)   
    DRY( 23,165)   DRY( 23,166)   DRY( 23,167)   DRY( 23,168)   DRY( 23,169)   
    DRY( 23,170)   DRY( 23,171)   DRY( 23,172)   DRY( 23,173)   DRY( 23,174)   
    DRY( 23,175)   DRY( 23,176)   DRY( 23,177)   DRY( 23,178)   DRY( 23,179)   
    DRY( 23,180)   DRY( 23,181)   DRY( 23,182)   DRY( 23,183)   DRY( 23,184)   
    DRY( 23,185)   DRY( 23,186)   DRY( 23,187)   DRY( 23,188)   DRY( 23,189)   
    DRY( 23,190)   DRY( 23,191)   DRY( 23,192)   DRY( 23,193)   DRY( 23,194)   
    DRY( 23,195)   DRY( 23,210)   DRY( 23,211)   DRY( 23,242)   DRY( 23,243)   
    DRY( 23,244)   DRY( 23,245)   DRY( 23,246)   DRY( 23,247)   DRY( 23,248)   
    DRY( 23,249)   DRY( 23,250)   DRY( 23,251)   DRY( 23,252)   DRY( 23,253)   
    DRY( 23,254)   DRY( 23,255)   DRY( 23,256)   DRY( 23,257)   DRY( 23,258)   
    DRY( 23,259)   DRY( 23,260)   DRY( 23,261)   DRY( 23,262)   DRY( 23,263)   
    DRY( 23,264)   DRY( 23,265)   DRY( 23,266)   DRY( 23,267)   DRY( 23,268)   
    DRY( 23,269)   DRY( 23,270)   DRY( 23,271)   DRY( 23,272)   DRY( 23,273)   
    DRY( 23,274)   DRY( 23,277)   DRY( 23,278)   DRY( 23,279)   DRY( 23,297)   
    DRY( 23,309)   DRY( 24,  8)   DRY( 24, 13)   DRY( 24, 20)   DRY( 24, 21)   
    DRY( 24, 22)   DRY( 24, 23)   DRY( 24, 24)   DRY( 24, 25)   DRY( 24, 26)   
    DRY( 24, 27)   DRY( 24, 28)   DRY( 24, 29)   DRY( 24, 30)   DRY( 24, 31)   
    DRY( 24, 32)   DRY( 24, 33)   DRY( 24, 34)   DRY( 24, 35)   DRY( 24, 36)   
    DRY( 24, 37)   DRY( 24, 38)   DRY( 24, 39)   DRY( 24, 40)   DRY( 24, 41)   
    DRY( 24, 42)   DRY( 24, 43)   DRY( 24, 44)   DRY( 24, 45)   DRY( 24, 46)   
    DRY( 24, 47)   DRY( 24, 48)   DRY( 24, 49)   DRY( 24, 50)   DRY( 24, 51)   
    DRY( 24, 52)   DRY( 24, 53)   DRY( 24, 54)   DRY( 24, 55)   DRY( 24, 56)   
    DRY( 24, 61)   DRY( 24, 62)   DRY( 24, 63)   DRY( 24, 64)   DRY( 24, 65)   
    DRY( 24, 66)   DRY( 24, 67)   DRY( 24, 68)   DRY( 24, 69)   DRY( 24, 70)   
    DRY( 24, 71)   DRY( 24, 72)   DRY( 24, 73)   DRY( 24, 74)   DRY( 24, 92)   
    DRY( 24, 93)   DRY( 24, 94)   DRY( 24, 95)   DRY( 24, 96)   DRY( 24, 97)   
    DRY( 24, 98)   DRY( 24, 99)   DRY( 24,100)   DRY( 24,101)   DRY( 24,102)   
    DRY( 24,103)   DRY( 24,104)   DRY( 24,105)   DRY( 24,106)   DRY( 24,107)   
    DRY( 24,108)   DRY( 24,109)   DRY( 24,110)   DRY( 24,111)   DRY( 24,112)   
    DRY( 24,113)   DRY( 24,114)   DRY( 24,115)   DRY( 24,116)   DRY( 24,117)   
    DRY( 24,118)   DRY( 24,119)   DRY( 24,120)   DRY( 24,121)   DRY( 24,122)   
    DRY( 24,123)   DRY( 24,124)   DRY( 24,125)   DRY( 24,126)   DRY( 24,127)   
    DRY( 24,128)   DRY( 24,129)   DRY( 24,130)   DRY( 24,131)   DRY( 24,132)   
    DRY( 24,133)   DRY( 24,134)   DRY( 24,135)   DRY( 24,136)   DRY( 24,137)   
    DRY( 24,138)   DRY( 24,139)   DRY( 24,140)   DRY( 24,141)   DRY( 24,142)   
    DRY( 24,143)   DRY( 24,144)   DRY( 24,145)   DRY( 24,146)   DRY( 24,147)   
    DRY( 24,148)   DRY( 24,149)   DRY( 24,150)   DRY( 24,151)   DRY( 24,152)   
    DRY( 24,153)   DRY( 24,154)   DRY( 24,155)   DRY( 24,156)   DRY( 24,157)   
    DRY( 24,158)   DRY( 24,159)   DRY( 24,160)   DRY( 24,161)   DRY( 24,162)   
    DRY( 24,163)   DRY( 24,164)   DRY( 24,165)   DRY( 24,166)   DRY( 24,167)   
    DRY( 24,168)   DRY( 24,169)   DRY( 24,170)   DRY( 24,171)   DRY( 24,172)   
    DRY( 24,173)   DRY( 24,174)   DRY( 24,175)   DRY( 24,176)   DRY( 24,177)   
    DRY( 24,178)   DRY( 24,179)   DRY( 24,180)   DRY( 24,181)   DRY( 24,182)   
    DRY( 24,183)   DRY( 24,184)   DRY( 24,185)   DRY( 24,186)   DRY( 24,187)   
    DRY( 24,188)   DRY( 24,189)   DRY( 24,190)   DRY( 24,191)   DRY( 24,192)   
    DRY( 24,193)   DRY( 24,194)   DRY( 24,195)   DRY( 24,196)   DRY( 24,247)   
    DRY( 24,248)   DRY( 24,249)   DRY( 24,250)   DRY( 24,251)   DRY( 24,252)   
    DRY( 24,253)   DRY( 24,254)   DRY( 24,255)   DRY( 24,256)   DRY( 24,257)   
    DRY( 24,258)   DRY( 24,259)   DRY( 24,260)   DRY( 24,261)   DRY( 24,262)   
    DRY( 24,263)   DRY( 24,264)   DRY( 24,265)   DRY( 24,266)   DRY( 24,267)   
    DRY( 24,268)   DRY( 24,269)   DRY( 24,270)   DRY( 24,271)   DRY( 24,272)   
    DRY( 24,273)   DRY( 24,274)   DRY( 24,276)   DRY( 24,277)   DRY( 24,278)   
    DRY( 24,279)   DRY( 24,280)   DRY( 25,  8)   DRY( 25, 17)   DRY( 25, 19)   
    DRY( 25, 20)   DRY( 25, 21)   DRY( 25, 22)   DRY( 25, 23)   DRY( 25, 24)   
    DRY( 25, 25)   DRY( 25, 26)   DRY( 25, 27)   DRY( 25, 28)   DRY( 25, 29)   
    DRY( 25, 30)   DRY( 25, 31)   DRY( 25, 32)   DRY( 25, 33)   DRY( 25, 34)   
    DRY( 25, 35)   DRY( 25, 36)   DRY( 25, 37)   DRY( 25, 38)   DRY( 25, 39)   
    DRY( 25, 40)   DRY( 25, 41)   DRY( 25, 42)   DRY( 25, 43)   DRY( 25, 44)   
    DRY( 25, 45)   DRY( 25, 46)   DRY( 25, 47)   DRY( 25, 48)   DRY( 25, 49)   
    DRY( 25, 50)   DRY( 25, 51)   DRY( 25, 52)   DRY( 25, 53)   DRY( 25, 54)   
    DRY( 25, 55)   DRY( 25, 56)   DRY( 25, 57)   DRY( 25, 62)   DRY( 25, 63)   
    DRY( 25, 64)   DRY( 25, 65)   DRY( 25, 66)   DRY( 25, 67)   DRY( 25, 68)   
    DRY( 25, 69)   DRY( 25, 70)   DRY( 25, 71)   DRY( 25, 72)   DRY( 25, 73)   
    DRY( 25, 74)   DRY( 25, 75)   DRY( 25, 94)   DRY( 25, 95)   DRY( 25, 96)   
    DRY( 25, 97)   DRY( 25, 98)   DRY( 25, 99)   DRY( 25,100)   DRY( 25,101)   
    DRY( 25,102)   DRY( 25,103)   DRY( 25,104)   DRY( 25,105)   DRY( 25,106)   
    DRY( 25,107)   DRY( 25,108)   DRY( 25,109)   DRY( 25,110)   DRY( 25,111)   
    DRY( 25,112)   DRY( 25,113)   DRY( 25,114)   DRY( 25,115)   DRY( 25,116)   
    DRY( 25,117)   DRY( 25,118)   DRY( 25,119)   DRY( 25,120)   DRY( 25,121)   
    DRY( 25,122)   DRY( 25,123)   DRY( 25,124)   DRY( 25,125)   DRY( 25,126)   
    DRY( 25,127)   DRY( 25,128)   DRY( 25,129)   DRY( 25,130)   DRY( 25,131)   
    DRY( 25,132)   DRY( 25,133)   DRY( 25,134)   DRY( 25,135)   DRY( 25,136)   
    DRY( 25,137)   DRY( 25,138)   DRY( 25,139)   DRY( 25,140)   DRY( 25,141)   
    DRY( 25,142)   DRY( 25,143)   DRY( 25,144)   DRY( 25,145)   DRY( 25,146)   
    DRY( 25,147)   DRY( 25,148)   DRY( 25,149)   DRY( 25,150)   DRY( 25,151)   
    DRY( 25,152)   DRY( 25,153)   DRY( 25,154)   DRY( 25,155)   DRY( 25,156)   
    DRY( 25,157)   DRY( 25,158)   DRY( 25,159)   DRY( 25,160)   DRY( 25,161)   
    DRY( 25,162)   DRY( 25,163)   DRY( 25,164)   DRY( 25,165)   DRY( 25,166)   
    DRY( 25,167)   DRY( 25,168)   DRY( 25,169)   DRY( 25,170)   DRY( 25,171)   
    DRY( 25,172)   DRY( 25,173)   DRY( 25,174)   DRY( 25,175)   DRY( 25,176)   
    DRY( 25,177)   DRY( 25,178)   DRY( 25,179)   DRY( 25,180)   DRY( 25,181)   
    DRY( 25,182)   DRY( 25,183)   DRY( 25,184)   DRY( 25,185)   DRY( 25,186)   
    DRY( 25,187)   DRY( 25,188)   DRY( 25,189)   DRY( 25,190)   DRY( 25,191)   
    DRY( 25,192)   DRY( 25,193)   DRY( 25,194)   DRY( 25,195)   DRY( 25,196)   
    DRY( 25,197)   DRY( 25,198)   DRY( 25,199)   DRY( 25,213)   DRY( 25,251)   
    DRY( 25,252)   DRY( 25,253)   DRY( 25,254)   DRY( 25,255)   DRY( 25,256)   
    DRY( 25,257)   DRY( 25,258)   DRY( 25,259)   DRY( 25,260)   DRY( 25,261)   
    DRY( 25,262)   DRY( 25,263)   DRY( 25,264)   DRY( 25,265)   DRY( 25,266)   
    DRY( 25,267)   DRY( 25,268)   DRY( 25,269)   DRY( 25,270)   DRY( 25,271)   
    DRY( 25,272)   DRY( 25,273)   DRY( 25,274)   DRY( 25,275)   DRY( 25,276)   
    DRY( 25,277)   DRY( 25,278)   DRY( 25,279)   DRY( 25,280)   DRY( 26, 14)   
    DRY( 26, 16)   DRY( 26, 17)   DRY( 26, 18)   DRY( 26, 19)   DRY( 26, 20)   
    DRY( 26, 21)   DRY( 26, 22)   DRY( 26, 23)   DRY( 26, 24)   DRY( 26, 25)   
    DRY( 26, 26)   DRY( 26, 27)   DRY( 26, 28)   DRY( 26, 29)   DRY( 26, 30)   
    DRY( 26, 31)   DRY( 26, 32)   DRY( 26, 33)   DRY( 26, 34)   DRY( 26, 35)   
    DRY( 26, 36)   DRY( 26, 37)   DRY( 26, 38)   DRY( 26, 39)   DRY( 26, 40)   
    DRY( 26, 41)   DRY( 26, 42)   DRY( 26, 43)   DRY( 26, 44)   DRY( 26, 45)   
    DRY( 26, 46)   DRY( 26, 47)   DRY( 26, 48)   DRY( 26, 49)   DRY( 26, 50)   
    DRY( 26, 51)   DRY( 26, 52)   DRY( 26, 53)   DRY( 26, 54)   DRY( 26, 55)   
    DRY( 26, 56)   DRY( 26, 61)   DRY( 26, 62)   DRY( 26, 63)   DRY( 26, 64)   
    DRY( 26, 65)   DRY( 26, 66)   DRY( 26, 67)   DRY( 26, 68)   DRY( 26, 69)   
    DRY( 26, 70)   DRY( 26, 71)   DRY( 26, 72)   DRY( 26, 73)   DRY( 26, 74)   
    DRY( 26, 75)   DRY( 26, 76)   DRY( 26, 94)   DRY( 26, 95)   DRY( 26, 96)   
    DRY( 26, 97)   DRY( 26, 98)   DRY( 26, 99)   DRY( 26,100)   DRY( 26,101)   
    DRY( 26,102)   DRY( 26,103)   DRY( 26,104)   DRY( 26,105)   DRY( 26,106)   
    DRY( 26,107)   DRY( 26,108)   DRY( 26,109)   DRY( 26,110)   DRY( 26,111)   
    DRY( 26,112)   DRY( 26,113)   DRY( 26,114)   DRY( 26,115)   DRY( 26,116)   
    DRY( 26,117)   DRY( 26,118)   DRY( 26,119)   DRY( 26,120)   DRY( 26,121)   
    DRY( 26,122)   DRY( 26,123)   DRY( 26,124)   DRY( 26,125)   DRY( 26,126)   
    DRY( 26,127)   DRY( 26,128)   DRY( 26,129)   DRY( 26,130)   DRY( 26,131)   
    DRY( 26,132)   DRY( 26,133)   DRY( 26,134)   DRY( 26,135)   DRY( 26,136)   
    DRY( 26,137)   DRY( 26,138)   DRY( 26,139)   DRY( 26,140)   DRY( 26,141)   
    DRY( 26,142)   DRY( 26,143)   DRY( 26,144)   DRY( 26,145)   DRY( 26,146)   
    DRY( 26,147)   DRY( 26,148)   DRY( 26,149)   DRY( 26,150)   DRY( 26,151)   
    DRY( 26,152)   DRY( 26,153)   DRY( 26,154)   DRY( 26,155)   DRY( 26,156)   
    DRY( 26,157)   DRY( 26,158)   DRY( 26,159)   DRY( 26,160)   DRY( 26,161)   
    DRY( 26,162)   DRY( 26,163)   DRY( 26,164)   DRY( 26,165)   DRY( 26,166)   
    DRY( 26,167)   DRY( 26,168)   DRY( 26,169)   DRY( 26,170)   DRY( 26,171)   
    DRY( 26,172)   DRY( 26,173)   DRY( 26,174)   DRY( 26,175)   DRY( 26,176)   
    DRY( 26,177)   DRY( 26,178)   DRY( 26,179)   DRY( 26,180)   DRY( 26,181)   
    DRY( 26,182)   DRY( 26,183)   DRY( 26,184)   DRY( 26,185)   DRY( 26,186)   
    DRY( 26,187)   DRY( 26,188)   DRY( 26,189)   DRY( 26,190)   DRY( 26,191)   
    DRY( 26,192)   DRY( 26,193)   DRY( 26,194)   DRY( 26,195)   DRY( 26,196)   
    DRY( 26,197)   DRY( 26,198)   DRY( 26,199)   DRY( 26,200)   DRY( 26,201)   
    DRY( 26,254)   DRY( 26,255)   DRY( 26,256)   DRY( 26,257)   DRY( 26,258)   
    DRY( 26,259)   DRY( 26,260)   DRY( 26,261)   DRY( 26,262)   DRY( 26,263)   
    DRY( 26,264)   DRY( 26,265)   DRY( 26,266)   DRY( 26,267)   DRY( 26,268)   
    DRY( 26,269)   DRY( 26,270)   DRY( 26,271)   DRY( 26,272)   DRY( 26,273)   
    DRY( 26,274)   DRY( 26,275)   DRY( 26,276)   DRY( 26,277)   DRY( 26,278)   
    DRY( 26,279)   DRY( 26,280)   DRY( 26,281)   DRY( 27, 14)   DRY( 27, 16)   
    DRY( 27, 17)   DRY( 27, 18)   DRY( 27, 19)   DRY( 27, 20)   DRY( 27, 21)   
    DRY( 27, 22)   DRY( 27, 23)   DRY( 27, 24)   DRY( 27, 25)   DRY( 27, 26)   
    DRY( 27, 27)   DRY( 27, 28)   DRY( 27, 29)   DRY( 27, 30)   DRY( 27, 31)   
    DRY( 27, 32)   DRY( 27, 33)   DRY( 27, 34)   DRY( 27, 35)   DRY( 27, 36)   
    DRY( 27, 37)   DRY( 27, 38)   DRY( 27, 39)   DRY( 27, 40)   DRY( 27, 41)   
    DRY( 27, 42)   DRY( 27, 43)   DRY( 27, 44)   DRY( 27, 45)   DRY( 27, 46)   
    DRY( 27, 47)   DRY( 27, 48)   DRY( 27, 49)   DRY( 27, 50)   DRY( 27, 51)   
    DRY( 27, 52)   DRY( 27, 53)   DRY( 27, 54)   DRY( 27, 55)   DRY( 27, 56)   
    DRY( 27, 57)   DRY( 27, 62)   DRY( 27, 64)   DRY( 27, 65)   DRY( 27, 66)   
    DRY( 27, 67)   DRY( 27, 68)   DRY( 27, 69)   DRY( 27, 70)   DRY( 27, 71)   
    DRY( 27, 72)   DRY( 27, 73)   DRY( 27, 74)   DRY( 27, 75)   DRY( 27, 76)   
    DRY( 27, 77)   DRY( 27, 78)   DRY( 27, 94)   DRY( 27, 95)   DRY( 27, 96)   
    DRY( 27, 97)   DRY( 27, 98)   DRY( 27, 99)   DRY( 27,100)   DRY( 27,101)   
[...]
  0 -0.5233E-01  0 -0.6439E-01  0  0.7937E-01  0  0.7450E-01  0 -0.5609E-02
   (  1,  3,195)  (  1,  7,197)  (  1, 19,192)  (  1, 19,192)  (  1,200,314)
  0 -0.6483E-02  0 -0.1486E-01  0 -0.1946E-01  1 -0.4191E-01  0 -0.1123    
   (  2,200,314)  (  2,269,208)  (  1,269,208)  (  2,234,244)  (  1, 49, 98)
  0  0.5943E-01  0  0.7728E-01  0  0.8815E-01  0  0.8260E-01  0  0.7983E-01
   (  1,  4,194)  (  1,  4,194)  (  1,  2,196)  (  1,  7,197)  (  1,  7,197)
  0  0.6961E-01  0 -0.9151E-02  0 -0.1101E-01  1 -0.1317E-01  0 -0.3024E-01
   (  1,  3,195)  (  2,280,197)  (  1,280,197)  (  1,220,264)  (  1,  4,194)
  0 -0.4730E-01  0 -0.5861E-01  0  0.7305E-01  0  0.6763E-01  0 -0.4567E-02
   (  1,  3,195)  (  1,  7,197)  (  1, 19,192)  (  1, 19,192)  (  1,205,328)
  0 -0.6228E-02  0 -0.1021E-01  0 -0.1251E-01  1 -0.4504E-01  0 -0.1049    
   (  1,205,328)  (  2,205,328)  (  1,205,328)  (  2,272,209)  (  1, 49, 98)
  0 -0.6863E-02  0 -0.9598E-02  0  0.8160E-01  0  0.7474E-01  0  0.7361E-01
   (  2,272,211)  (  1,272,211)  (  1,  2,196)  (  1,  7,197)  (  1,  7,197)
  0  0.6353E-01  0 -0.2080E-02  0 -0.2857E-02  1 -0.7359E-02  0 -0.3782E-02
   (  1,  3,195)  (  2,268,217)  (  1,268,217)  (  1,242,238)  (  1,269,217)
  0 -0.7849E-02  0 -0.8131E-02  0 -0.9196E-02  0 -0.1081E-01  0 -0.1019E-01
   (  2,269,217)  (  1,268,218)  (  1,268,218)  (  2,268,218)  (  1,268,218)
  0 -0.9974E-02  0 -0.1219E-01  0 -0.1497E-01  1 -0.2236E-01  0 -0.9716E-01
   (  1,268,218)  (  2,203,323)  (  1,203,323)  (  1,220,265)  (  1, 49, 98)
  0  0.5067E-01  0  0.6520E-01  0  0.7552E-01  0  0.6922E-01  0  0.6711E-01
   (  1,  4,194)  (  1,  4,194)  (  1,  2,196)  (  1,  7,197)  (  1,  7,197)
  0 -0.5623E-02  0 -0.5575E-02  0 -0.6783E-02  1 -0.1363E-01  0 -0.2805E-01
   (  2,277,209)  (  2,277,209)  (  1,277,209)  (  1,252,232)  (  1, 45,100)
  0 -0.4061E-01  0 -0.5002E-01  0  0.5956E-01  0  0.5829E-01  0 -0.5891E-02
   (  1,  3,195)  (  1,  7,197)  (  1, 19,192)  (  1, 19,192)  (  1,215,337)
  0 -0.7426E-02  0 -0.1208E-01  0 -0.1434E-01  1 -0.4357E-01  0 -0.8972E-01
   (  1,215,337)  (  2,215,337)  (  1,215,337)  (  2,202,314)  (  1, 49, 98)
  0  0.4662E-01  0  0.6017E-01  0  0.7051E-01  0  0.6340E-01  0  0.6114E-01
   (  1,  4,194)  (  1,  4,194)  (  1,  2,196)  (  1,  7,197)  (  1,  7,197)
  0  0.5426E-01  0 -0.5990E-02  0 -0.3991E-02  1 -0.1021E-01  0 -0.2623E-01
   (  1,  3,195)  (  2,277,213)  (  1,268,223)  (  1,226,257)  (  1, 45,100)
  0 -0.3761E-01  0 -0.4606E-01  0  0.5412E-01  0 -0.7818E-02  0 -0.7196E-02
   (  1,  3,195)  (  1,  7,197)  (  1, 19,192)  (  2,266,225)  (  1,266,225)
  0 -0.5932E-02  0 -0.9619E-02  0 -0.1127E-01  1 -0.2883E-01  0 -0.8408E-01
   (  1,234,247)  (  2,234,247)  (  2,234,247)  (  2,277,215)  (  1, 49, 98)
  0  0.4340E-01  0  0.5564E-01  0  0.6426E-01  0  0.5876E-01  0 -0.6791E-02
   (  1,  4,194)  (  1,  4,194)  (  1,  2,196)  (  1,  7,197)  (  1,277,217)
  0 -0.5792E-02  0 -0.5409E-02  0 -0.6164E-02  1 -0.8397E-02  0 -0.5092E-02
   (  2,277,217)  (  2,277,217)  (  1,277,217)  (  1,203,314)  (  2,203,314)
  0 -0.3471E-01  0 -0.4205E-01  0  0.4980E-01  0  0.5068E-01  0 -0.4511E-01
   (  1,  3,195)  (  1,  7,197)  (  1, 19,192)  (  1, 19,192)  (  1,  2,196)
  0 -0.3051E-02  0 -0.5578E-02  0 -0.7245E-02  1 -0.1186E-01  0 -0.7916E-01
   (  1,206,325)  (  2,206,325)  (  1,206,325)  (  1,237,245)  (  1, 49, 98)
  0  0.3947E-01  0  0.5235E-01  0  0.6037E-01  0  0.5308E-01  0  0.5354E-01
   (  1,  4,194)  (  1,  4,194)  (  1,  2,196)  (  1,  7,197)  (  1,  7,197)
  0  0.4594E-01  0 -0.2613E-02  0 -0.3262E-02  1 -0.8221E-02  0 -0.5895E-02
   (  1,  3,195)  (  2,274,223)  (  1,274,223)  (  1,255,233)  (  2,266,228)
  0 -0.9890E-02  0 -0.1064E-01  0  0.4578E-01  0 -0.3249E-02  0 -0.3981E-02
   (  2,266,228)  (  1,266,228)  (  1, 19,192)  (  2,270,226)  (  1,270,226)
  0 -0.5119E-02  0 -0.7687E-02  0 -0.9016E-02  1 -0.1184E-01  0 -0.7236E-01
   (  1,270,226)  (  2,270,226)  (  2,270,226)  (  1,258,232)  (  1, 49, 98)
  0 -0.9007E-02  0  0.4823E-01  0  0.5542E-01  0  0.5011E-01  0  0.4893E-01
   (  2,275,224)  (  1,  3,195)  (  1,  2,196)  (  1,  7,197)  (  1,  7,197)
  0 -0.3369E-02  0 -0.3177E-02  0 -0.3869E-02  1 -0.9830E-02  0 -0.5189E-02
   (  1,273,225)  (  2,273,225)  (  1,273,225)  (  1,224,261)  (  2,224,261)
  0 -0.6780E-02  0 -0.3634E-01  0  0.4226E-01  0 -0.5199E-02  0 -0.6167E-02
   (  2,231,252)  (  1,  7,197)  (  1, 19,192)  (  2,276,224)  (  1,276,224)
  0 -0.6704E-02  0 -0.1029E-01  0 -0.1141E-01  1 -0.1497E-01  0 -0.7029E-01
   (  1,276,224)  (  2,276,224)  (  1,276,224)  (  1,214,278)  (  1, 49, 98)
  0  0.3438E-01  0  0.4569E-01  0  0.5255E-01  0  0.4552E-01  0  0.4608E-01
   (  1,  4,194)  (  1,  4,194)  (  1,  2,196)  (  1,  7,197)  (  1,  7,197)
  0  0.3954E-01  0  0.2549E-01  0 -0.1272E-02  1 -0.5745E-02  0 -0.1990E-01
   (  1,  3,195)  (  1,  4,194)  (  1,270,228)  (  1,238,245)  (  1, 45,100)
  0 -0.2869E-01  0 -0.3396E-01  0  0.3901E-01  0  0.4057E-01  0  0.6120E-01
   (  1,  3,195)  (  1,  7,197)  (  1, 19,192)  (  1, 19,192)  (  1, 34,141)
  0  0.7360E-01  0 -0.6016E-02  0 -0.7212E-02
   (  1, 34,141)  (  2,206,322)  (  1,206,322)

 MAXIMUM RESIDUAL FOR EACH ITERATION (1 INDICATES THE FIRST INNER ITERATION):

    RESIDUAL       RESIDUAL       RESIDUAL       RESIDUAL       RESIDUAL    
   LAYER,ROW,COL  LAYER,ROW,COL  LAYER,ROW,COL  LAYER,ROW,COL  LAYER,ROW,COL
 ---------------------------------------------------------------------------
  1  0.7620E+06  0  0.3727E+06  0 -0.2107E+06  0  0.2371E+06  0  0.1561E+06
   (  2,252,119)  (  2,254,153)  (  3, 41, 60)  (  2,259,117)  (  2,244,157)
  0  0.1404E+06  0  0.1079E+06  0  0.8342E+05  0  0.8856E+05  0 -0.6985E+05
   (  2,242,150)  (  2,240,120)  (  2,251,148)  (  2,236,123)  (  2,236,123)
  1 -0.1046E+06  0  0.2463E+05  0 -0.4493E+05  0 -0.5300E+05  0 -0.3628E+05
   (  1,  7,192)  (  1, 12, 17)  (  1, 12, 17)  (  1, 12, 16)  (  1, 13, 16)
  0 -0.4537E+05  0 -0.1650E+06  0 -0.5861E+05  0 -0.3321E+05  0 -0.2063E+06
   (  1, 12, 17)  (  1,186,129)  (  1, 13, 16)  (  1, 12, 17)  (  1,186,129)
  1  0.2076E+06  0 -0.3693E+05  0 -0.9978E+05  0  0.9292E+05  0 -0.4994E+05
   (  2,151,160)  (  1, 13, 16)  (  1, 47, 77)  (  1, 47, 77)  (  1, 13, 16)
  0  0.4994E+05  0  0.5550E+05  0  0.4211E+05  0  0.4508E+05  0  0.5233E+05
   (  1, 13, 16)  (  1, 47, 77)  (  1, 47, 78)  (  1, 13, 16)  (  1,  7,192)
  1  0.5741E+05  0  0.2279E+05  0 -0.2519E+05  0  0.2004E+05  0 -0.1310E+06
   (  1, 23, 16)  (  1,  7,187)  (  2, 47, 75)  (  2, 47, 75)  (  2,  3,291)
  0  0.1236E+06  0 -0.3309E+05  0  0.3883E+05  0 -0.4282E+05  0 -0.1927E+06
   (  2,  3,291)  (  1, 47, 77)  (  1, 41, 65)  (  1, 25, 14)  (  2,151,160)
  1 -0.1297E+06  0  0.2591E+05  0 -0.4907E+05  0  0.4325E+05  0 -0.1008E+06
   (  2,190,347)  (  1, 25, 13)  (  1, 47, 77)  (  1, 47, 77)  (  2, 86,223)
  0  0.7107E+05  0 -0.2490E+05  0  -9420.      1 -0.9299E+05  0  0.4832E+05
   (  2,190,347)  (  1, 47, 78)  (  2, 47, 78)  (  1,242,142)  (  2,190,347)
  0  0.1599E+06  0  0.2196E+06  0  0.1673E+06  0 -0.7939E+05  0  0.2092E+06
   (  1,254,136)  (  2,246,140)  (  1,246,140)  (  2,190,347)  (  2,257,134)
  0  0.1776E+06  0 -0.2275E+06  0  0.4745E+06  1 -0.1061E+06  0 -0.2002E+05
   (  2,190,347)  (  2,190,347)  (  2,262,130)  (  2,187,340)  (  1, 25, 15)
  0  0.1224E+05  0  0.4940E+05  0 -0.1812E+05  0 -0.1683E+05  0 -0.1836E+05
   (  1, 47, 75)  (  2,264,131)  (  1, 41, 64)  (  1, 47, 76)  (  1, 47, 77)
  0  0.6847E+05  0  0.5549E+05  0 -0.1510E+05  1 -0.7462E+05  0  0.9139E+05
   (  1,227,153)  (  1,190,311)  (  1, 47, 77)  (  1,272,139)  (  2,220,155)
  0  0.1326E+06  0  0.1391E+06  0 -0.2421E+06  0  0.2039E+06  0  0.1300E+06
   (  1,276,136)  (  2,272,139)  (  2,228,168)  (  2,228,168)  (  2,273,138)
  0 -0.1889E+06  0 -0.3867E+06  0  0.3931E+06  1 -0.1412E+06  0  0.3127E+05
   (  2,279,134)  (  1,228,168)  (  1,228,168)  (  2,233,177)  (  2,233,164)
  0  0.6616E+05  0 -0.4776E+05  0  0.2940E+05  0  0.5544E+05  0 -0.4186E+05
   (  2,233,177)  (  2,234,163)  (  2,233,164)  (  2,233,177)  (  2,233,177)
  0  0.2046E+05  0  0.3358E+05  0 -0.1436E+05  1 -0.5317E+05  0  0.9177E+05
   (  2,274,134)  (  2,233,177)  (  1, 47, 77)  (  2,244,175)  (  2,259,161)
  0  0.6689E+05  0  0.1159E+06  0  0.1611E+06  0 -0.1583E+06  0  0.1430E+06
   (  2,244,175)  (  2,194,326)  (  2,259,161)  (  2,247,175)  (  2,197,305)
  0  0.1992E+06  0  0.2057E+06  0 -0.2521E+06  1 -0.9913E+05  0 -0.2171E+05
   (  2,259,161)  (  1,247,175)  (  1,197,305)  (  1,237,229)  (  2,244,175)
  0 -0.8851E+05  0  0.1048E+06  0 -0.2571E+05  0  0.9847E+05  0  0.1007E+06
   (  2,194,313)  (  2,237,229)  (  2,245,177)  (  1,261,169)  (  2,194,313)
  0 -0.5927E+05  0 -0.7913E+05  0  0.3740E+05  1 -0.6637E+05  0  0.7077E+05
   (  2,238,227)  (  2,261,169)  (  2,244,175)  (  1,277,155)  (  2,260,172)
  0  0.1040E+06  0  0.1188E+06  0  0.2997E+05  0  0.1526E+06  0  0.9566E+05
   (  1,277,155)  (  2,277,155)  (  2,278,158)  (  1,198,305)  (  2,266,166)
  0  0.1888E+06  0 -0.2092E+06  0  0.2099E+06  1 -0.1002E+06  0  0.7874E+05
   (  2,261,171)  (  2,198,305)  (  2,194,317)  (  1,200,302)  (  2,280,160)
  0 -0.9836E+05  0  0.9452E+05  0  0.4887E+05  0  0.1101E+06  0  0.9132E+05
   (  2,279,161)  (  2,200,302)  (  1,200,302)  (  1,280,160)  (  2,187,135)
  0 -0.4390E+05  0  0.8194E+05  0 -0.6947E+05  1 -0.7209E+05  0  0.5486E+05
   (  2,200,302)  (  1,280,160)  (  1,187,135)  (  1,197,310)  (  2,251,207)
  0  0.1433E+06  0  0.1272E+06  0  0.1319E+06  0  0.1236E+06  0  0.1455E+06
   (  1,260,187)  (  2,197,310)  (  2,240,229)  (  1,261,185)  (  2,260,187)
  0 -0.7797E+05  0  0.1551E+06  0  0.2300E+06  1 -0.9046E+05  0  0.6273E+05
   (  2,197,310)  (  1,251,207)  (  2,261,185)  (  1,217,265)  (  2,197,311)
  0 -0.1081E+06  0  0.8638E+05  0  0.1661E+05  0 -0.1098E+06  0  0.1090E+06
   (  2,197,311)  (  2,217,265)  (  2,264,177)  (  2,197,311)  (  2,197,311)
  0  0.3717E+05  0 -0.6800E+05  0  0.1088E+06  1 -0.3258E+05  0  0.5589E+05
   (  1,266,184)  (  2,197,311)  (  2,197,311)  (  2,271,177)  (  2,254,209)
  0 -0.1328E+06  0  0.1141E+06  0  0.1259E+06  0  0.1034E+06  0 -0.1099E+06
   (  2,260,197)  (  2,227,249)  (  2,196,146)  (  1,266,187)  (  1,260,197)
  0 -0.9117E+05  0  0.1214E+06  0  0.1647E+06  1 -0.1090E+06  0 -0.2442E+05
   (  2,260,197)  (  1,184,135)  (  2,260,197)  (  2,269,182)  (  2,269,182)
  0  0.6382E+05  0  0.9417E+05  0 -0.5254E+05  0  0.3465E+05  0  0.1037E+06
   (  2,269,182)  (  2,220,261)  (  2,220,261)  (  2,269,182)  (  2,262,200)
  0 -0.5238E+05  0  0.8964E+05  0  0.9096E+05  1  0.7167E+05  0  0.5808E+05
   (  2,262,200)  (  1,227,250)  (  2,262,200)  (  2,251,221)  (  2,280,176)
  0 -0.1256E+06  0 -0.9884E+05  0  0.1208E+06  0 -0.1293E+06  0  0.1095E+06
   (  2,251,221)  (  1,251,221)  (  2,247,226)  (  2,268,192)  (  2,251,221)
  0  0.1612E+06  0 -0.1632E+06  0  0.6039E+05  1 -0.6615E+05  0  0.6551E+05
   (  2,247,226)  (  2,268,192)  (  2,269,182)  (  2,278,177)  (  2,280,178)
  0  0.4665E+05  0  0.8972E+05  0  0.1871E+05  0 -0.7579E+05  0  0.8409E+05
   (  2,278,177)  (  2,218,265)  (  2,280,174)  (  2,280,178)  (  2,213,274)
  0  0.3400E+05  0  0.4392E+05  0  0.7407E+05  1 -0.6874E+05  0  0.6779E+05
   (  1,223,257)  (  1,280,178)  (  2,213,274)  (  1,230,247)  (  2,200,324)
  0 -0.1032E+06  0  0.1220E+06  0  0.7277E+05  0 -0.1402E+06  0  0.7894E+05
   (  2,230,247)  (  2,230,247)  (  1,230,247)  (  2,200,324)  (  2,230,247)
  0 -0.9859E+05  0 -0.1692E+06  0  0.1194E+06  1 -0.9319E+05  0  0.5230E+05
   (  2,230,247)  (  2,200,324)  (  2,185,137)  (  1,223,258)  (  2,275,192)
  0  0.6674E+05  0  0.9363E+05  0 -0.6241E+05  0 -0.9087E+05  0  0.6899E+05
   (  1,225,255)  (  2,223,258)  (  2,223,258)  (  2,227,252)  (  2,225,255)
  0 -0.5741E+05  0  0.5882E+05  0  0.8244E+05  1  0.7251E+05  0  0.8160E+05
   (  2,223,258)  (  1,227,252)  (  2,227,252)  (  2,213,275)  (  2,255,223)
  0 -0.9748E+05  0  0.1202E+06  0  0.8011E+05  0  0.8437E+05  0  0.1153E+06
   (  2,213,275)  (  2,213,275)  (  1,213,275)  (  1,280,189)  (  2,214,273)
  0 -0.1397E+06  0 -0.1282E+06  0  0.1608E+06  1  0.1004E+06  0  0.7039E+05
   (  2,213,275)  (  2,245,232)  (  2,266,207)  (  2,201,308)  (  2,252,227)
  0 -0.9175E+05  0  0.9100E+05  0  0.7540E+05  0  0.9468E+05  0  0.8788E+05
   (  2,201,308)  (  2,201,308)  (  2,267,209)  (  1,252,227)  (  2,269,206)
  0 -0.3602E+05  0 -0.7289E+05  0  0.8034E+05  1 -0.5817E+05  0  0.7507E+05
   (  2,201,308)  (  2,252,227)  (  2,269,206)  (  1,257,224)  (  2,200,317)
  0 -0.1072E+06  0 -0.8958E+05  0  0.1106E+06  0 -0.1243E+06  0  0.1300E+06
   (  2,257,224)  (  1,216,270)  (  2,200,317)  (  2,271,205)  (  2,200,315)
  0  0.1204E+06  0  0.1514E+06  0 -0.1696E+06  1 -0.9451E+05  0  0.7005E+05
   (  2,200,317)  (  1,271,205)  (  1,200,315)  (  1,218,267)  (  2,280,197)
  0  0.9205E+05  0  0.9228E+05  0  0.5132E+05  0  0.9380E+05  0  0.8172E+05
   (  1,249,231)  (  2,218,267)  (  2,280,197)  (  1,280,197)  (  2,216,339)
  0 -0.4004E+05  0  0.6544E+05  0  0.9121E+05  1 -0.5531E+05  0  0.6645E+05
   (  2,203,303)  (  1,280,197)  (  2,229,251)  (  1,220,264)  (  2,250,231)
  0 -0.8932E+05  0  0.9260E+05  0  0.9950E+05  0 -0.9284E+05  0  0.8512E+05
   (  2,222,261)  (  2,222,261)  (  2,250,231)  (  2,170,324)  (  2,222,261)
  0 -0.7902E+05  0  0.1572E+06  0  0.8297E+05  1 -0.9732E+05  0  0.6177E+05
   (  2,222,261)  (  1,250,231)  (  2,222,261)  (  1,215,273)  (  2,210,333)
  0 -0.8952E+05  0  0.1013E+06  0  0.5363E+05  0 -0.8250E+05  0  0.6900E+05
   (  2,219,266)  (  2,215,273)  (  1,215,273)  (  2,254,229)  (  2,219,266)
  0 -0.5423E+05  0 -0.5090E+05  0  0.5983E+05  1  0.5759E+05  0  0.6556E+05
   (  2,215,273)  (  2,254,229)  (  2,219,266)  (  2,214,275)  (  2,269,217)
  0 -0.1066E+06  0  0.8908E+05  0 -0.9041E+05  0 -0.8862E+05  0  0.1091E+06
   (  2,214,275)  (  2,255,229)  (  1,269,217)  (  2,214,275)  (  2,255,229)
  0  0.1439E+06  0 -0.9091E+05  0  0.1433E+06  1 -0.9779E+05  0  0.7301E+05
   (  2,272,213)  (  2,214,275)  (  2,255,229)  (  1,220,265)  (  2,248,234)
  0 -0.1041E+06  0  0.9851E+05  0  0.3661E+05  0  0.1046E+06  0  0.8768E+05
   (  2,244,237)  (  2,220,265)  (  1,220,265)  (  1,248,234)  (  2,244,237)
  0 -0.4153E+05  0  0.7163E+05  0  0.8647E+05  1  0.6204E+05  0  0.4975E+05
   (  2,220,265)  (  1,248,234)  (  2,261,226)  (  2,252,232)  (  2,271,219)
  0 -0.8416E+05  0  0.1001E+06  0  0.5455E+05  0 -0.8938E+05  0  0.1179E+06
   (  2,252,232)  (  2,252,232)  (  1,252,232)  (  2,262,226)  (  2,202,313)
  0 -0.9635E+05  0 -0.1201E+06  0  0.1406E+06  1  0.1092E+06  0  0.4583E+05
   (  2,252,232)  (  2,276,212)  (  2,202,313)  (  2,245,237)  (  2,253,232)
  0 -0.1096E+06  0  0.9368E+05  0  0.3455E+05  0 -0.7665E+05  0  0.8388E+05
   (  2,253,232)  (  2,245,237)  (  1,219,267)  (  2,253,232)  (  2,253,232)
  0 -0.4477E+05  0 -0.7069E+05  0  0.9362E+05  1  0.5531E+05  0  0.5740E+05
   (  2,219,267)  (  2,262,227)  (  2,253,232)  (  2,226,257)  (  2,273,220)
  0 -0.9535E+05  0  0.8425E+05  0  0.7340E+05  0 -0.7050E+05  0  0.1043E+06
   (  2,247,236)  (  2,247,236)  (  2,273,220)  (  2,247,236)  (  2,247,236)
  0 -0.6546E+05  0 -0.9605E+05  0  0.1274E+06  1  0.1025E+06  0  0.7000E+05
   (  2,247,236)  (  2,263,227)  (  2,247,236)  (  2,251,234)  (  2,213,334)
  0 -0.1064E+06  0  0.9049E+05  0 -0.1798E+05  0 -0.6119E+05  0  0.7525E+05
   (  2,251,234)  (  2,251,234)  (  2,248,236)  (  2,251,234)  (  2,251,234)
  0  0.4371E+05  0  0.5307E+05  0  0.8909E+05  1  0.6185E+05  0  0.6604E+05
   (  2,213,334)  (  1,224,260)  (  2,263,228)  (  2,203,314)  (  2,276,220)
  0 -0.8324E+05  0  0.1139E+06  0  0.9847E+05  0 -0.8284E+05  0 -0.8394E+05
   (  2,248,236)  (  2,203,314)  (  1,203,314)  (  2,274,222)  (  1,203,314)
  0 -0.1533E+06  0  0.1179E+06  0  0.1031E+06  1 -0.8972E+05  0  0.7784E+05
   (  2,203,314)  (  2,203,314)  (  2,271,224)  (  1,237,245)  (  2,280,218)
  0 -0.1045E+06  0  0.8236E+05  0  0.7345E+05  0 -0.6964E+05  0  0.6477E+05
   (  2,271,225)  (  2,215,275)  (  2,280,218)  (  2,271,225)  (  2,215,275)
  0  0.6169E+05  0  0.3509E+05  0  0.8028E+05  1  0.5482E+05  0 -0.5571E+05
   (  2,280,218)  (  1,271,225)  (  2,271,225)  (  2,255,233)  (  1,249,236)
  0 -0.8902E+05  0 -0.7648E+05  0  0.7102E+05  0 -0.7281E+05  0  0.9341E+05
   (  2,255,233)  (  1,255,233)  (  2,249,236)  (  2,251,235)  (  2,255,233)
  0  0.5144E+05  0  0.1457E+06  0  0.9983E+05  1  0.1142E+06  0  0.4790E+05
   (  1,255,233)  (  1,249,236)  (  2,251,235)  (  2,258,232)  (  2,275,224)
  0 -0.1112E+06  0  0.1043E+06  0  0.2541E+05  0 -0.7834E+05  0  0.8447E+05
   (  2,258,232)  (  2,258,232)  (  1,258,232)  (  2,275,224)  (  2,258,232)
  0  0.3471E+05  0  0.4507E+05  0  0.1181E+06  1  0.5189E+05  0 -0.5290E+05
   (  1,258,232)  (  1,275,224)  (  2,275,224)  (  2,224,261)  (  1,254,234)
  0 -0.7585E+05  0  0.7753E+05  0  0.7218E+05  0  0.9155E+05  0  0.7463E+05
   (  2,224,261)  (  2,224,261)  (  2,254,234)  (  1,254,234)  (  2,224,261)
  0 -0.5775E+05  0  0.1171E+06  0  0.8965E+05  1 -0.9562E+05  0 -0.5078E+05
   (  2,224,261)  (  1,254,234)  (  2,167,323)  (  1,214,278)  (  1,280,224)
  0 -0.1007E+06  0  0.8119E+05  0  0.3811E+05  0 -0.6090E+05  0  0.5001E+05
   (  2,280,224)  (  2,214,278)  (  1,214,278)  (  2,280,224)  (  2,214,278)
  0 -0.3892E+05  0 -0.3167E+05  0  0.6444E+05  1  0.5356E+05  0  0.3452E+05
   (  2,214,278)  (  2,280,224)  (  2,208,326)  (  2,238,245)  (  2,258,233)
  0 -0.9398E+05  0 -0.7712E+05  0  0.7238E+05  0  0.9112E+05  0  0.1006E+06
   (  2,238,245)  (  1,238,245)  (  2,239,244)  (  1,258,233)  (  2,238,245)
  0  0.8756E+05  0 -0.1109E+06  0 -0.9943E+05
   (  2,239,244)  (  2,258,233)  (  1,238,245)



 OUTPUT CONTROL FOR STRESS PERIOD    1   TIME STEP   1
    SAVE HEAD FOR ALL LAYERS

           ****FAILED TO MEET SOLVER CONVERGENCE CRITERIA IN TIME STEP  1 OF STRESS PERIOD    1****

 HEAD WILL BE SAVED ON UNIT   51 AT END OF TIME STEP   1, STRESS PERIOD    1
1
  VOLUMETRIC BUDGET FOR ENTIRE MODEL AT END OF TIME STEP  1 IN STRESS PERIOD   1
  ------------------------------------------------------------------------------

     CUMULATIVE VOLUMES      L**3       RATES FOR THIS TIME STEP      L**3/T
     ------------------                 ------------------------

           IN:                                      IN:
           ---                                      ---
             STORAGE =           0.0000               STORAGE =           0.0000
       CONSTANT HEAD =           0.0000         CONSTANT HEAD =           0.0000
            RECHARGE =     3576482.6400              RECHARGE =     3576482.6400

            TOTAL IN =     3576482.6400              TOTAL IN =     3576482.6400

          OUT:                                     OUT:
          ----                                     ----
             STORAGE =           0.0000               STORAGE =           0.0000
       CONSTANT HEAD =           0.0000         CONSTANT HEAD =           0.0000
            RECHARGE =           0.0000              RECHARGE =           0.0000

           TOTAL OUT =           0.0000             TOTAL OUT =           0.0000

            IN - OUT =     3576482.6400              IN - OUT =     3576482.6400

 PERCENT DISCREPANCY =         200.00     PERCENT DISCREPANCY =         200.00




WARNING: VOLUMETRIC RATE BUDGET PERCENT ERROR FOR TIME STEP IS  200.0%




          TIME SUMMARY AT END OF TIME STEP   1 IN STRESS PERIOD    1
                    SECONDS     MINUTES      HOURS       DAYS        YEARS
                    -----------------------------------------------------------
   TIME STEP LENGTH 3.15576E+07 5.25960E+05  8766.0      365.25      1.0000    
 STRESS PERIOD TIME 3.15576E+07 5.25960E+05  8766.0      365.25      1.0000    
         TOTAL TIME 3.15576E+07 5.25960E+05  8766.0      365.25      1.0000    
1
 FAILURE TO MEET SOLVER CONVERGENCE CRITERIA
 BUDGET PERCENT DISCREPANCY IS  200.0000
 STOPPING SIMULATION

 RUN END DATE AND TIME (YYYY/MM/DD HH:MM:SS): 2023/04/27 14:19:54
 ELAPSED RUN TIME:  7.471 SECONDS

